RedeDSS/loads.dss
New Load.N30170 Bus1=6351.1.2 Conn=Wye Model=5 Phases=1 KV=13.8 KW=0.324 KVAR=0.138 Daily=976
New Load.W63160 Bus1=6347.1.2 Conn=Wye Model=5 Phases=1 KV=13.8 KW=0.978 KVAR=0.417 Daily=975
New Load.W74578 Bus1=6343.1.2 Conn=Wye Model=5 Phases=1 KV=13.8 KW=0.454 KVAR=0.194 Daily=974
New Load.W74573 Bus1=6339.1.2 Conn=Wye Model=5 Phases=1 KV=13.8 KW=0.071 KVAR=0.03 Daily=973
New Load.Y13237 Bus1=6326.1.2 Conn=Wye Model=5 Phases=1 KV=13.8 KW=2.456 KVAR=1.046 Daily=971
New Load.Y21432 Bus1=6309.1.3 Conn=Wye Model=5 Phases=1 KV=13.8 KW=0.392 KVAR=0.167 Daily=969
New Load.N44684 Bus1=6295.1.2.3 Conn=Delta Model=5 Phases=3 KV=13.8 KW=0.215 KVAR=0.092 Daily=968
New Load.N44686 Bus1=6291.1.2.3 Conn=Delta Model=5 Phases=3 KV=13.8 KW=0.106 KVAR=0.045 Daily=967
New Load.A52114 Bus1=6250.1.2.3 Conn=Delta Model=5 Phases=3 KV=13.8 KW=1.261 KVAR=0.537 Daily=961
New Load.A52107 Bus1=6243.1.2 Conn=Wye Model=5 Phases=1 KV=13.8 KW=0.082 KVAR=0.035 Daily=960
New Load.A52102 Bus1=6220.1.2 Conn=Wye Model=5 Phases=1 KV=13.8 KW=0.429 KVAR=0.183 Daily=959
New Load.A52118 Bus1=6218.1.2.3 Conn=Delta Model=5 Phases=3 KV=13.8 KW=0.056 KVAR=0.024 Daily=958
New Load.A52120 Bus1=6216.1.2 Conn=Wye Model=5 Phases=1 KV=13.8 KW=0.052 KVAR=0.022 Daily=957
New Load.A52126 Bus1=6207.1.2.3 Conn=Delta Model=5 Phases=3 KV=13.8 KW=0.527 KVAR=0.224 Daily=956
New Load.A52121 Bus1=6200.1.2.3 Conn=Delta Model=5 Phases=3 KV=13.8 KW=0.641 KVAR=0.273 Daily=955
New Load.A52221 Bus1=6180.1.2.3 Conn=Delta Model=5 Phases=3 KV=13.8 KW=0.532 KVAR=0.227 Daily=954
New Load.A52218 Bus1=6150.1.2.3 Conn=Delta Model=5 Phases=3 KV=13.8 KW=2.082 KVAR=0.887 Daily=953
New Load.A52216 Bus1=6144.1.2.3 Conn=Delta Model=5 Phases=3 KV=13.8 KW=1.995 KVAR=0.85 Daily=952
New Load.A52209 Bus1=6135.1.2.3 Conn=Delta Model=5 Phases=3 KV=13.8 KW=42.84 KVAR=18.25 Daily=950
New Load.A52207 Bus1=6132.1.2.3 Conn=Delta Model=5 Phases=3 KV=13.8 KW=34.605 KVAR=14.742 Daily=949
New Load.A52147 Bus1=6124.1.2.3 Conn=Delta Model=5 Phases=3 KV=13.8 KW=0.176 KVAR=0.075 Daily=948
New Load.A52149 Bus1=6117.1.2.3 Conn=Delta Model=5 Phases=3 KV=13.8 KW=0.559 KVAR=0.238 Daily=947
New Load.A52144 Bus1=6113.1.2 Conn=Wye Model=5 Phases=1 KV=13.8 KW=0.515 KVAR=0.219 Daily=946
New Load.A52232 Bus1=6098.1 Conn=Wye Model=5 Phases=1 KV=7.967 KW=0.296 KVAR=0.126 Daily=944
New Load.A52229 Bus1=6096.1 Conn=Wye Model=5 Phases=1 KV=7.967 KW=0.495 KVAR=0.211 Daily=943
New Load.A52244 Bus1=6082.1 Conn=Wye Model=5 Phases=1 KV=7.967 KW=0.671 KVAR=0.286 Daily=942
New Load.A52234 Bus1=6066.1 Conn=Wye Model=5 Phases=1 KV=7.967 KW=1.246 KVAR=0.531 Daily=940
New Load.A52202 Bus1=6063.1.2.3 Conn=Delta Model=5 Phases=3 KV=13.8 KW=14.505 KVAR=6.179 Daily=939
New Load.A52031 Bus1=6040.1.2 Conn=Wye Model=5 Phases=1 KV=13.8 KW=1.3 KVAR=0.554 Daily=937
New Load.A52001 Bus1=6031.1.2.3 Conn=Delta Model=5 Phases=3 KV=13.8 KW=15.913 KVAR=6.779 Daily=936
New Load.A52104 Bus1=6014.1.2.3 Conn=Delta Model=5 Phases=3 KV=13.8 KW=0.629 KVAR=0.268 Daily=935
New Load.A52113 Bus1=6006.1.2.3 Conn=Delta Model=5 Phases=3 KV=13.8 KW=0.048 KVAR=0.021 Daily=933
New Load.A52228 Bus1=5999.1 Conn=Wye Model=5 Phases=1 KV=7.967 KW=0.531 KVAR=0.226 Daily=932
New Load.A52240 Bus1=5992.1 Conn=Wye Model=5 Phases=1 KV=7.967 KW=0.723 KVAR=0.308 Daily=931
New Load.A52238 Bus1=5962.1 Conn=Wye Model=5 Phases=1 KV=7.967 KW=0.407 KVAR=0.173 Daily=929
New Load.A52235 Bus1=5960.1 Conn=Wye Model=5 Phases=1 KV=7.967 KW=0.16 KVAR=0.068 Daily=928
New Load.A52224 Bus1=5942.1 Conn=Wye Model=5 Phases=1 KV=7.967 KW=0.605 KVAR=0.258 Daily=926
New Load.A52177 Bus1=5925.1.2.3 Conn=Delta Model=5 Phases=3 KV=13.8 KW=10.642 KVAR=4.534 Daily=925
New Load.A52192 Bus1=5920.1.2.3 Conn=Delta Model=5 Phases=3 KV=13.8 KW=0.235 KVAR=0.1 Daily=924
New Load.A52191 Bus1=5917.1.2.3 Conn=Delta Model=5 Phases=3 KV=13.8 KW=1.505 KVAR=0.641 Daily=923
New Load.A52176 Bus1=5907.1.2.3 Conn=Delta Model=5 Phases=3 KV=13.8 KW=0.426 KVAR=0.182 Daily=922
New Load.A52187 Bus1=5900.1 Conn=Wye Model=5 Phases=1 KV=7.967 KW=0.493 KVAR=0.21 Daily=920
New Load.A52185 Bus1=5886.1.2.3 Conn=Delta Model=5 Phases=3 KV=13.8 KW=0.004 KVAR=0.002 Daily=919
New Load.A52183 Bus1=5881.1.2.3 Conn=Delta Model=5 Phases=3 KV=13.8 KW=0.194 KVAR=0.082 Daily=917
New Load.A52180 Bus1=5872.1.3 Conn=Wye Model=5 Phases=1 KV=13.8 KW=0.767 KVAR=0.327 Daily=916
New Load.A52170 Bus1=5851.1.2.3 Conn=Delta Model=5 Phases=3 KV=13.8 KW=2.183 KVAR=0.93 Daily=914
New Load.A52040 Bus1=5836.1.2.3 Conn=Delta Model=5 Phases=3 KV=13.8 KW=0.918 KVAR=0.391 Daily=913
New Load.A52048 Bus1=5829.1.2.3 Conn=Delta Model=5 Phases=3 KV=13.8 KW=0.262 KVAR=0.112 Daily=912
New Load.A52046 Bus1=5821.1.2.3 Conn=Delta Model=5 Phases=3 KV=13.8 KW=0.082 KVAR=0.035 Daily=911
New Load.A52037 Bus1=5809.1.2.3 Conn=Delta Model=5 Phases=3 KV=13.8 KW=0.746 KVAR=0.318 Daily=909
New Load.W79831 Bus1=5802.1.2.3 Conn=Delta Model=5 Phases=3 KV=13.8 KW=32.21 KVAR=13.721 Daily=908
New Load.A52211 Bus1=5791.1.2.3 Conn=Delta Model=5 Phases=3 KV=13.8 KW=12.837 KVAR=5.469 Daily=907
New Load.A52210 Bus1=5788.1.2.3 Conn=Delta Model=5 Phases=3 KV=13.8 KW=30.425 KVAR=12.961 Daily=906
New Load.A66657 Bus1=5784.1.2.3 Conn=Delta Model=5 Phases=3 KV=13.8 KW=0.868 KVAR=0.37 Daily=905
New Load.A52077 Bus1=5761.1.2.3 Conn=Delta Model=5 Phases=3 KV=13.8 KW=0.824 KVAR=0.351 Daily=904
New Load.A52071 Bus1=5757.1.2.3 Conn=Delta Model=5 Phases=3 KV=13.8 KW=0.715 KVAR=0.305 Daily=903
New Load.Y06520 Bus1=5753.1.2.3 Conn=Delta Model=5 Phases=3 KV=13.8 KW=0.11 KVAR=0.047 Daily=902
New Load.A52067 Bus1=5748.1.2.3 Conn=Delta Model=5 Phases=3 KV=13.8 KW=0.419 KVAR=0.179 Daily=901
New Load.A52062 Bus1=5739.1.2 Conn=Wye Model=5 Phases=1 KV=13.8 KW=0.141 KVAR=0.06 Daily=899
New Load.A52310 Bus1=5734.1.2.3 Conn=Delta Model=5 Phases=3 KV=13.8 KW=17.863 KVAR=7.61 Daily=898
New Load.A52311 Bus1=5728.1.2.3 Conn=Delta Model=5 Phases=3 KV=13.8 KW=27.476 KVAR=11.705 Daily=897
New Load.A52203 Bus1=5711.1.2.3 Conn=Delta Model=5 Phases=3 KV=13.8 KW=38.392 KVAR=16.355 Daily=896
New Load.A52199 Bus1=5701.1.2.3 Conn=Delta Model=5 Phases=3 KV=13.8 KW=23.003 KVAR=9.799 Daily=895
New Load.A52204 Bus1=5691.1.2.3 Conn=Delta Model=5 Phases=3 KV=13.8 KW=28.339 KVAR=12.072 Daily=894
New Load.A52196 Bus1=5677.1.2.3 Conn=Delta Model=5 Phases=3 KV=13.8 KW=3.13 KVAR=1.334 Daily=893
New Load.A52197 Bus1=5672.1.2.3 Conn=Delta Model=5 Phases=3 KV=13.8 KW=22.444 KVAR=9.561 Daily=892
New Load.A66669 Bus1=5665.1 Conn=Wye Model=5 Phases=1 KV=7.967 KW=0.05 KVAR=0.021 Daily=891
New Load.A52098 Bus1=5659.1.2.3 Conn=Delta Model=5 Phases=3 KV=13.8 KW=0.042 KVAR=0.018 Daily=889
New Load.A52343 Bus1=5650.1 Conn=Wye Model=5 Phases=1 KV=7.967 KW=0.446 KVAR=0.19 Daily=888
New Load.A52060 Bus1=5565.1.2.3 Conn=Delta Model=5 Phases=3 KV=13.8 KW=0.351 KVAR=0.149 Daily=886
New Load.A52058 Bus1=5563.1.2.3 Conn=Delta Model=5 Phases=3 KV=13.8 KW=1.452 KVAR=0.618 Daily=885
New Load.A52057 Bus1=5551.2.3 Conn=Wye Model=5 Phases=1 KV=13.8 KW=0.082 KVAR=0.035 Daily=884
New Load.A52056 Bus1=5547.1.2.3 Conn=Delta Model=5 Phases=3 KV=13.8 KW=4.46 KVAR=1.9 Daily=883
New Load.A52054 Bus1=5537.1.2.3 Conn=Delta Model=5 Phases=3 KV=13.8 KW=0.516 KVAR=0.22 Daily=882
New Load.A52052 Bus1=5531.1.2.3 Conn=Delta Model=5 Phases=3 KV=13.8 KW=0.063 KVAR=0.027 Daily=881
New Load.A52050 Bus1=5526.1.2.3 Conn=Delta Model=5 Phases=3 KV=13.8 KW=0.093 KVAR=0.04 Daily=880
New Load.A52041 Bus1=5517.1.2.3 Conn=Delta Model=5 Phases=3 KV=13.8 KW=0.048 KVAR=0.021 Daily=879
New Load.A52100 Bus1=5508.1 Conn=Wye Model=5 Phases=1 KV=7.967 KW=0.121 KVAR=0.052 Daily=878
New Load.A52092 Bus1=5480.1.2.3 Conn=Delta Model=5 Phases=3 KV=13.8 KW=0.401 KVAR=0.171 Daily=876
New Load.A52093 Bus1=5464.1 Conn=Wye Model=5 Phases=1 KV=7.967 KW=0.241 KVAR=0.102 Daily=874
New Load.A52084 Bus1=5455.1.2 Conn=Wye Model=5 Phases=1 KV=13.8 KW=0.175 KVAR=0.074 Daily=873
New Load.Y06542 Bus1=5438.1.2.3 Conn=Delta Model=5 Phases=3 KV=13.8 KW=0.259 KVAR=0.111 Daily=870
New Load.A52086 Bus1=5437.1.2 Conn=Wye Model=5 Phases=1 KV=13.8 KW=0.141 KVAR=0.06 Daily=869
New Load.A52081 Bus1=5435.1.2.3 Conn=Delta Model=5 Phases=3 KV=13.8 KW=0.117 KVAR=0.05 Daily=868
New Load.A52356 Bus1=5429.1 Conn=Wye Model=5 Phases=1 KV=7.967 KW=0.183 KVAR=0.078 Daily=867
New Load.W10322 Bus1=5424.1.3 Conn=Wye Model=5 Phases=1 KV=13.8 KW=0.042 KVAR=0.018 Daily=866
New Load.W10327 Bus1=5405.1.2 Conn=Wye Model=5 Phases=1 KV=13.8 KW=0.616 KVAR=0.262 Daily=865
New Load.A52347 Bus1=5385.1.2.3 Conn=Delta Model=5 Phases=3 KV=13.8 KW=2.082 KVAR=0.887 Daily=863
New Load.W10309 Bus1=5379.1.2 Conn=Wye Model=5 Phases=1 KV=13.8 KW=1.999 KVAR=0.851 Daily=862
New Load.A52315 Bus1=5365.1.2.3 Conn=Delta Model=5 Phases=3 KV=13.8 KW=1.329 KVAR=0.566 Daily=861
New Load.A52313 Bus1=5359.1.2 Conn=Wye Model=5 Phases=1 KV=13.8 KW=0.302 KVAR=0.129 Daily=860
New Load.A52301 Bus1=5347.1.2.3 Conn=Delta Model=5 Phases=3 KV=13.8 KW=0.523 KVAR=0.223 Daily=859
New Load.A52297 Bus1=5331.1.2.3 Conn=Delta Model=5 Phases=3 KV=13.8 KW=0.429 KVAR=0.183 Daily=858
New Load.A52321 Bus1=5329.1.2 Conn=Wye Model=5 Phases=1 KV=13.8 KW=0.016 KVAR=0.007 Daily=857
New Load.W10334 Bus1=5314.1.2 Conn=Wye Model=5 Phases=1 KV=13.8 KW=0.704 KVAR=0.3 Daily=856
New Load.W10333 Bus1=5311.1.2 Conn=Wye Model=5 Phases=1 KV=13.8 KW=0.269 KVAR=0.115 Daily=855
New Load.W10320 Bus1=5283.1.3 Conn=Wye Model=5 Phases=1 KV=13.8 KW=0.337 KVAR=0.144 Daily=854
New Load.A52008 Bus1=5259.1.2.3 Conn=Delta Model=5 Phases=3 KV=13.8 KW=0.491 KVAR=0.209 Daily=852
New Load.A52152 Bus1=5251.1.2.3 Conn=Delta Model=5 Phases=3 KV=13.8 KW=0.323 KVAR=0.137 Daily=851
New Load.A52168 Bus1=5244.1 Conn=Wye Model=5 Phases=1 KV=7.967 KW=0.457 KVAR=0.195 Daily=850
New Load.A52292 Bus1=5211.1.2.3 Conn=Delta Model=5 Phases=3 KV=13.8 KW=0.664 KVAR=0.283 Daily=848
New Load.A52294 Bus1=5202.1.2 Conn=Wye Model=5 Phases=1 KV=13.8 KW=0.399 KVAR=0.17 Daily=846
New Load.A52305 Bus1=5195.1.2.3 Conn=Delta Model=5 Phases=3 KV=13.8 KW=0.429 KVAR=0.183 Daily=845
New Load.A52299 Bus1=5192.1.2.3 Conn=Delta Model=5 Phases=3 KV=13.8 KW=8.453 KVAR=3.601 Daily=844
New Load.A52309 Bus1=5187.1.2.3 Conn=Delta Model=5 Phases=3 KV=13.8 KW=1.751 KVAR=0.746 Daily=843
New Load.A52308 Bus1=5184.1.2.3 Conn=Delta Model=5 Phases=3 KV=13.8 KW=0.266 KVAR=0.113 Daily=842
New Load.A52006 Bus1=5168.1.2.3 Conn=Delta Model=5 Phases=3 KV=13.8 KW=0.199 KVAR=0.085 Daily=841
New Load.A52026 Bus1=5144.1.2.3 Conn=Delta Model=5 Phases=3 KV=13.8 KW=1.942 KVAR=0.827 Daily=839
New Load.A52020 Bus1=5139.1 Conn=Wye Model=5 Phases=1 KV=7.967 KW=0.091 KVAR=0.039 Daily=838
New Load.A52028 Bus1=5130.1.2.3 Conn=Delta Model=5 Phases=3 KV=13.8 KW=0.28 KVAR=0.119 Daily=837
New Load.A52022 Bus1=5126.1.2.3 Conn=Delta Model=5 Phases=3 KV=13.8 KW=0.02 KVAR=0.009 Daily=836
New Load.A52018 Bus1=5120.1.2.3 Conn=Delta Model=5 Phases=3 KV=13.8 KW=0.453 KVAR=0.193 Daily=835
New Load.A52161 Bus1=5095.1 Conn=Wye Model=5 Phases=1 KV=7.967 KW=0.101 KVAR=0.043 Daily=833
New Load.A52156 Bus1=5093.1 Conn=Wye Model=5 Phases=1 KV=7.967 KW=0.062 KVAR=0.026 Daily=832
New Load.A52154 Bus1=5091.1 Conn=Wye Model=5 Phases=1 KV=7.967 KW=0.175 KVAR=0.074 Daily=831
New Load.W55052 Bus1=6047.1.2 Conn=Wye Model=5 Phases=1 KV=13.8 KW=0.196 KVAR=0.084 Daily=938
New Load.A52029 Bus1=5089.1.2.3 Conn=Delta Model=5 Phases=3 KV=13.8 KW=0.493 KVAR=0.21 Daily=830
New Load.A52160 Bus1=5080.1 Conn=Wye Model=5 Phases=1 KV=7.967 KW=0.054 KVAR=0.023 Daily=828
New Load.A52380 Bus1=4967.1.2.3 Conn=Delta Model=5 Phases=3 KV=13.8 KW=1.676 KVAR=0.714 Daily=825
New Load.A52377 Bus1=4954.1.2.3 Conn=Delta Model=5 Phases=3 KV=13.8 KW=0.513 KVAR=0.219 Daily=824
New Load.A52375 Bus1=4938.1.2.3 Conn=Delta Model=5 Phases=3 KV=13.8 KW=0.587 KVAR=0.25 Daily=822
New Load.A52252 Bus1=4886.1.2 Conn=Wye Model=5 Phases=1 KV=13.8 KW=1.188 KVAR=0.506 Daily=819
New Load.A52383 Bus1=4861.1.2.3 Conn=Delta Model=5 Phases=3 KV=13.8 KW=0.505 KVAR=0.215 Daily=818
New Load.A52386 Bus1=4858.1 Conn=Wye Model=5 Phases=1 KV=7.967 KW=0.226 KVAR=0.096 Daily=817
New Load.A52385 Bus1=4841.1.2.3 Conn=Delta Model=5 Phases=3 KV=13.8 KW=1.071 KVAR=0.456 Daily=816
New Load.A52389 Bus1=4840.1.2.3 Conn=Delta Model=5 Phases=3 KV=13.8 KW=0.625 KVAR=0.266 Daily=815
New Load.A52439 Bus1=4823.1.2.3 Conn=Delta Model=5 Phases=3 KV=13.8 KW=0.853 KVAR=0.364 Daily=814
New Load.A68914 Bus1=4784.1.3 Conn=Wye Model=5 Phases=1 KV=13.8 KW=2.95 KVAR=1.257 Daily=813
New Load.A52260 Bus1=4769.1.2.3 Conn=Delta Model=5 Phases=3 KV=13.8 KW=0.77 KVAR=0.328 Daily=810
New Load.A52250 Bus1=4742.1.2.3 Conn=Delta Model=5 Phases=3 KV=13.8 KW=0.093 KVAR=0.04 Daily=804
New Load.A52257 Bus1=4740.1 Conn=Wye Model=5 Phases=1 KV=7.967 KW=0.059 KVAR=0.025 Daily=802
New Load.A52275 Bus1=4727.1.2.3 Conn=Delta Model=5 Phases=3 KV=13.8 KW=0.601 KVAR=0.256 Daily=801
New Load.A52285 Bus1=4724.1.2.3 Conn=Delta Model=5 Phases=3 KV=13.8 KW=0.934 KVAR=0.398 Daily=800
New Load.A52279 Bus1=4718.1.2.3 Conn=Delta Model=5 Phases=3 KV=13.8 KW=0.134 KVAR=0.057 Daily=797
New Load.A52277 Bus1=4714.1.2.3 Conn=Delta Model=5 Phases=3 KV=13.8 KW=1.099 KVAR=0.468 Daily=796
New Load.A52290 Bus1=4663.1.2.3 Conn=Delta Model=5 Phases=3 KV=13.8 KW=2.089 KVAR=0.89 Daily=790
New Load.A52461 Bus1=4643.2.3 Conn=Wye Model=5 Phases=1 KV=13.8 KW=0.23 KVAR=0.098 Daily=789
New Load.A52447 Bus1=4635.1.2.3 Conn=Delta Model=5 Phases=3 KV=13.8 KW=0.148 KVAR=0.063 Daily=788
New Load.A52450 Bus1=4630.1.2.3 Conn=Delta Model=5 Phases=3 KV=13.8 KW=0.437 KVAR=0.186 Daily=787
New Load.A52453 Bus1=4625.1.2.3 Conn=Delta Model=5 Phases=3 KV=13.8 KW=0.223 KVAR=0.095 Daily=786
New Load.A52456 Bus1=4619.1.2.3 Conn=Delta Model=5 Phases=3 KV=13.8 KW=0.331 KVAR=0.141 Daily=785
New Load.A52458 Bus1=4614.1.2.3 Conn=Delta Model=5 Phases=3 KV=13.8 KW=0.239 KVAR=0.102 Daily=784
New Load.A52455 Bus1=4609.1.2 Conn=Wye Model=5 Phases=1 KV=13.8 KW=0.124 KVAR=0.053 Daily=782
New Load.A52287 Bus1=4604.1.2.3 Conn=Delta Model=5 Phases=3 KV=13.8 KW=1.284 KVAR=0.547 Daily=781
New Load.A52267 Bus1=4587.1.2.3 Conn=Delta Model=5 Phases=3 KV=13.8 KW=0.679 KVAR=0.289 Daily=779
New Load.A52402 Bus1=4545.1.2.3 Conn=Delta Model=5 Phases=3 KV=13.8 KW=2.343 KVAR=0.998 Daily=778
New Load.A52408 Bus1=4543.1.2.3 Conn=Delta Model=5 Phases=3 KV=13.8 KW=0.715 KVAR=0.305 Daily=777
New Load.A68900 Bus1=4512.1.3 Conn=Wye Model=5 Phases=1 KV=13.8 KW=0.469 KVAR=0.2 Daily=774
New Load.A52441 Bus1=4507.1.2.3 Conn=Delta Model=5 Phases=3 KV=13.8 KW=0.164 KVAR=0.07 Daily=773
New Load.A52443 Bus1=4488.1.2.3 Conn=Delta Model=5 Phases=3 KV=13.8 KW=0.102 KVAR=0.044 Daily=772
New Load.A66678 Bus1=4484.1.2.3 Conn=Delta Model=5 Phases=3 KV=13.8 KW=0.03 KVAR=0.013 Daily=771
New Load.A52442 Bus1=4465.1.2.3 Conn=Delta Model=5 Phases=3 KV=13.8 KW=0.148 KVAR=0.063 Daily=770
New Load.A52444 Bus1=4462.1.2.3 Conn=Delta Model=5 Phases=3 KV=13.8 KW=0.464 KVAR=0.198 Daily=769
New Load.A66680 Bus1=4456.1.2.3 Conn=Delta Model=5 Phases=3 KV=13.8 KW=0.538 KVAR=0.229 Daily=768
New Load.A52445 Bus1=4451.1.2.3 Conn=Delta Model=5 Phases=3 KV=13.8 KW=0.222 KVAR=0.094 Daily=766
New Load.A52415 Bus1=4445.1.2.3 Conn=Delta Model=5 Phases=3 KV=13.8 KW=0.177 KVAR=0.076 Daily=765
New Load.A52416 Bus1=4438.1.2.3 Conn=Delta Model=5 Phases=3 KV=13.8 KW=0.339 KVAR=0.144 Daily=764
New Load.Y21935 Bus1=4431.1.2.3 Conn=Delta Model=5 Phases=3 KV=13.8 KW=0.067 KVAR=0.029 Daily=763
New Load.A52399 Bus1=4423.1.2.3 Conn=Delta Model=5 Phases=3 KV=13.8 KW=0.059 KVAR=0.025 Daily=762
New Load.A52400 Bus1=4417.1.2.3 Conn=Delta Model=5 Phases=3 KV=13.8 KW=0.067 KVAR=0.029 Daily=761
New Load.A66656 Bus1=4407.1 Conn=Wye Model=5 Phases=1 KV=7.967 KW=0.376 KVAR=0.16 Daily=760
New Load.A52421 Bus1=4397.1.2.3 Conn=Delta Model=5 Phases=3 KV=13.8 KW=0.347 KVAR=0.148 Daily=759
New Load.Y00707 Bus1=6321.1.2.3 Conn=Delta Model=5 Phases=3 KV=13.8 KW=0.226 KVAR=0.096 Daily=970
New Load.A52426 Bus1=4390.1.2.3 Conn=Delta Model=5 Phases=3 KV=13.8 KW=0.147 KVAR=0.062 Daily=758
New Load.A52428 Bus1=4388.1.2.3 Conn=Delta Model=5 Phases=3 KV=13.8 KW=0.493 KVAR=0.21 Daily=757
New Load.A52433 Bus1=4371.1.2.3 Conn=Delta Model=5 Phases=3 KV=13.8 KW=0.129 KVAR=0.055 Daily=755
New Load.A52436 Bus1=4368.1.2.3 Conn=Delta Model=5 Phases=3 KV=13.8 KW=1.105 KVAR=0.471 Daily=754
New Load.A52434 Bus1=4367.1.2.3 Conn=Delta Model=5 Phases=3 KV=13.8 KW=0.36 KVAR=0.153 Daily=753
New Load.A52422 Bus1=4357.1.2.3 Conn=Delta Model=5 Phases=3 KV=13.8 KW=0.141 KVAR=0.06 Daily=751
New Load.A52395 Bus1=4323.1.2.3 Conn=Delta Model=5 Phases=3 KV=13.8 KW=0.527 KVAR=0.224 Daily=750
New Load.W74576 Bus1=4320.1.2.3 Conn=Delta Model=5 Phases=3 KV=13.8 KW=0.147 KVAR=0.062 Daily=749
New Load.W74575 Bus1=4319.1.2 Conn=Wye Model=5 Phases=1 KV=13.8 KW=0.098 KVAR=0.042 Daily=748
New Load.A52392 Bus1=4313.1.2.3 Conn=Delta Model=5 Phases=3 KV=13.8 KW=0.465 KVAR=0.198 Daily=747
New Load.W74574 Bus1=4311.1.2 Conn=Wye Model=5 Phases=1 KV=13.8 KW=0.477 KVAR=0.203 Daily=746
New Load.A52390 Bus1=4309.1.2.3 Conn=Delta Model=5 Phases=3 KV=13.8 KW=0.703 KVAR=0.299 Daily=745
New Load.A52410 Bus1=4307.1.2.3 Conn=Delta Model=5 Phases=3 KV=13.8 KW=0.477 KVAR=0.203 Daily=744
New Load.A52413 Bus1=4303.1.2.3 Conn=Delta Model=5 Phases=3 KV=13.8 KW=0.315 KVAR=0.134 Daily=743
New Load.A52418 Bus1=4298.1.2.3 Conn=Delta Model=5 Phases=3 KV=13.8 KW=0.763 KVAR=0.325 Daily=742
New Load.A68910 Bus1=4297.1.2 Conn=Wye Model=5 Phases=1 KV=13.8 KW=2.071 KVAR=0.882 Daily=741
New Load.A52396 Bus1=4287.1.2 Conn=Wye Model=5 Phases=1 KV=13.8 KW=0.628 KVAR=0.267 Daily=740
New Load.A52142 Bus1=4272.1.2 Conn=Wye Model=5 Phases=1 KV=13.8 KW=0.121 KVAR=0.052 Daily=738
New Load.A52148 Bus1=4270.1.2.3 Conn=Delta Model=5 Phases=3 KV=13.8 KW=0.339 KVAR=0.144 Daily=737
New Load.A52143 Bus1=4265.1.2.3 Conn=Delta Model=5 Phases=3 KV=13.8 KW=0.353 KVAR=0.151 Daily=736
New Load.A52136 Bus1=4258.1.2.3 Conn=Delta Model=5 Phases=3 KV=13.8 KW=0.398 KVAR=0.169 Daily=734
New Load.A52133 Bus1=4255.1.2.3 Conn=Delta Model=5 Phases=3 KV=13.8 KW=0.339 KVAR=0.144 Daily=733
New Load.A52140 Bus1=4252.1.2.3 Conn=Delta Model=5 Phases=3 KV=13.8 KW=0.206 KVAR=0.088 Daily=732
New Load.A52128 Bus1=4230.1.2.3 Conn=Delta Model=5 Phases=3 KV=13.8 KW=0.427 KVAR=0.182 Daily=729
New Load.A52130 Bus1=4219.1.2.3 Conn=Delta Model=5 Phases=3 KV=13.8 KW=0.267 KVAR=0.114 Daily=728
New Load.A52132 Bus1=4218.1.2.3 Conn=Delta Model=5 Phases=3 KV=13.8 KW=0.664 KVAR=0.283 Daily=727
New Load.Y03523 Bus1=4207.1.3 Conn=Wye Model=5 Phases=1 KV=13.8 KW=1.031 KVAR=0.439 Daily=724
New Load.Y03525 Bus1=4204.1.2.3 Conn=Delta Model=5 Phases=3 KV=13.8 KW=1.418 KVAR=0.604 Daily=723
New Load.Y03522 Bus1=4202.1.3 Conn=Wye Model=5 Phases=1 KV=13.8 KW=1.274 KVAR=0.543 Daily=722
New Load.Y03524 Bus1=4200.1.3 Conn=Wye Model=5 Phases=1 KV=13.8 KW=0.848 KVAR=0.361 Daily=721
New Load.Y04391 Bus1=4198.1.2 Conn=Wye Model=5 Phases=1 KV=13.8 KW=0.165 KVAR=0.07 Daily=719
New Load.Y06522 Bus1=4195.1.2 Conn=Wye Model=5 Phases=1 KV=13.8 KW=0.263 KVAR=0.112 Daily=718
New Load.Y06521 Bus1=4194.1.2 Conn=Wye Model=5 Phases=1 KV=13.8 KW=0.185 KVAR=0.079 Daily=717
New Load.Y06879 Bus1=4192.1.2 Conn=Wye Model=5 Phases=1 KV=13.8 KW=0.145 KVAR=0.062 Daily=716
New Load.Y18522 Bus1=4182.1.2 Conn=Wye Model=5 Phases=1 KV=13.8 KW=0.242 KVAR=0.103 Daily=714
New Load.W10376 Bus1=4168.1.3 Conn=Wye Model=5 Phases=1 KV=13.8 KW=0.147 KVAR=0.062 Daily=712
New Load.W10377 Bus1=4161.1.3 Conn=Wye Model=5 Phases=1 KV=13.8 KW=0.075 KVAR=0.032 Daily=711
New Load.A52352 Bus1=4152.1.2.3 Conn=Delta Model=5 Phases=3 KV=13.8 KW=2.103 KVAR=0.896 Daily=710
New Load.W10329 Bus1=4148.1.2 Conn=Wye Model=5 Phases=1 KV=13.8 KW=1.026 KVAR=0.437 Daily=709
New Load.W10332 Bus1=4140.1.2 Conn=Wye Model=5 Phases=1 KV=13.8 KW=0.196 KVAR=0.084 Daily=708
New Load.W10321 Bus1=4134.1.3 Conn=Wye Model=5 Phases=1 KV=13.8 KW=0.669 KVAR=0.285 Daily=707
New Load.W10324 Bus1=4128.1.3 Conn=Wye Model=5 Phases=1 KV=13.8 KW=0.809 KVAR=0.345 Daily=706
New Load.W10325 Bus1=4125.1.2 Conn=Wye Model=5 Phases=1 KV=13.8 KW=1.251 KVAR=0.533 Daily=705
New Load.W10303 Bus1=4103.1.3 Conn=Wye Model=5 Phases=1 KV=13.8 KW=0.324 KVAR=0.138 Daily=704
New Load.W10305 Bus1=4099.1.3 Conn=Wye Model=5 Phases=1 KV=13.8 KW=0.773 KVAR=0.329 Daily=703
New Load.W10307 Bus1=4088.1.3 Conn=Wye Model=5 Phases=1 KV=13.8 KW=0.64 KVAR=0.273 Daily=702
New Load.W10331 Bus1=4083.1.2 Conn=Wye Model=5 Phases=1 KV=13.8 KW=2.074 KVAR=0.883 Daily=701
New Load.W10312 Bus1=4077.1.3 Conn=Wye Model=5 Phases=1 KV=13.8 KW=0.375 KVAR=0.16 Daily=700
New Load.W10317 Bus1=4068.1.3 Conn=Wye Model=5 Phases=1 KV=13.8 KW=0.372 KVAR=0.159 Daily=699
New Load.W10318 Bus1=4065.1.3 Conn=Wye Model=5 Phases=1 KV=13.8 KW=0.852 KVAR=0.363 Daily=698
New Load.W10343 Bus1=4060.1.2.3 Conn=Delta Model=5 Phases=3 KV=13.8 KW=0.13 KVAR=0.056 Daily=697
New Load.W10311 Bus1=4055.1.2 Conn=Wye Model=5 Phases=1 KV=13.8 KW=0.637 KVAR=0.271 Daily=696
New Load.W10323 Bus1=4053.1.2 Conn=Wye Model=5 Phases=1 KV=13.8 KW=0.655 KVAR=0.279 Daily=695
New Load.W10328 Bus1=4051.1.2 Conn=Wye Model=5 Phases=1 KV=13.8 KW=0.884 KVAR=0.377 Daily=694
New Load.W10335 Bus1=4049.1.2 Conn=Wye Model=5 Phases=1 KV=13.8 KW=2.062 KVAR=0.878 Daily=693
New Load.W10336 Bus1=4046.1.2 Conn=Wye Model=5 Phases=1 KV=13.8 KW=0.931 KVAR=0.397 Daily=692
New Load.W10347 Bus1=4023.1.2 Conn=Wye Model=5 Phases=1 KV=13.8 KW=0.136 KVAR=0.058 Daily=691
New Load.W10339 Bus1=4000.1.2 Conn=Wye Model=5 Phases=1 KV=13.8 KW=0.062 KVAR=0.026 Daily=689
New Load.A52091 Bus1=3994.1.2.3 Conn=Delta Model=5 Phases=3 KV=13.8 KW=0.183 KVAR=0.078 Daily=688
New Load.Y03751 Bus1=3993.2.3 Conn=Wye Model=5 Phases=1 KV=13.8 KW=0.138 KVAR=0.059 Daily=687
New Load.A52201 Bus1=3992.1.2.3 Conn=Delta Model=5 Phases=3 KV=13.8 KW=11.539 KVAR=4.916 Daily=686
New Load.W51557 Bus1=3987.1.2.3 Conn=Delta Model=5 Phases=3 KV=13.8 KW=0.703 KVAR=0.299 Daily=685
New Load.W55053 Bus1=3985.1.2.3 Conn=Delta Model=5 Phases=3 KV=13.8 KW=0.145 KVAR=0.062 Daily=684
New Load.C02946 Bus1=3981.1.2.3 Conn=Delta Model=5 Phases=3 KV=13.8 KW=0.091 KVAR=0.039 Daily=682
New Load.N37268 Bus1=3971.1.2 Conn=Wye Model=5 Phases=1 KV=13.8 KW=0.086 KVAR=0.037 Daily=681
New Load.N44957 Bus1=3950.1.2 Conn=Wye Model=5 Phases=1 KV=13.8 KW=0.142 KVAR=0.061 Daily=680
New Load.N44951 Bus1=3943.1.2 Conn=Wye Model=5 Phases=1 KV=13.8 KW=0.026 KVAR=0.011 Daily=679
New Load.N44950 Bus1=3938.1.2 Conn=Wye Model=5 Phases=1 KV=13.8 KW=0.078 KVAR=0.033 Daily=678
New Load.N44955 Bus1=3932.1.2 Conn=Wye Model=5 Phases=1 KV=13.8 KW=0.228 KVAR=0.097 Daily=677
New Load.N58521 Bus1=3929.1.2 Conn=Wye Model=5 Phases=1 KV=13.8 KW=0.077 KVAR=0.033 Daily=676
New Load.N58559 Bus1=3922.1.2 Conn=Wye Model=5 Phases=1 KV=13.8 KW=0.216 KVAR=0.092 Daily=675
New Load.N58520 Bus1=3919.1.2 Conn=Wye Model=5 Phases=1 KV=13.8 KW=0.095 KVAR=0.041 Daily=674
New Load.N44958 Bus1=3913.1.2 Conn=Wye Model=5 Phases=1 KV=13.8 KW=0.148 KVAR=0.063 Daily=673
New Load.N44959 Bus1=3909.1.2 Conn=Wye Model=5 Phases=1 KV=13.8 KW=0.001 KVAR=0.001 Daily=672
New Load.N44952 Bus1=3888.1.2 Conn=Wye Model=5 Phases=1 KV=13.8 KW=0.012 KVAR=0.005 Daily=671
New Load.N44956 Bus1=3882.1.2 Conn=Wye Model=5 Phases=1 KV=13.8 KW=0.262 KVAR=0.112 Daily=670
New Load.N58549 Bus1=3867.1.2 Conn=Wye Model=5 Phases=1 KV=13.8 KW=0.161 KVAR=0.069 Daily=668
New Load.N44954 Bus1=3859.1.2 Conn=Wye Model=5 Phases=1 KV=13.8 KW=0.047 KVAR=0.02 Daily=667
New Load.7010822003 Bus1=3995.1.2.3 Conn=Delta Model=5 Phases=3 KV=13.8 KW=10.367 KVAR=4.416 Daily=225
