RedeDSS/CMC-01P3_Curr_Elem.Txt

CIRCUIT ELEMENT CURRENTS

(Currents into element from indicated bus)

Power Delivery Elements

  Bus Phase    Magnitude, A     Angle      (Real)   +j  (Imag)

ELEMENT = "Vsource.SOURCE"
19991     1           2.1588 /_  159.9 =    -2.0276 +j   0.74097
19991     2            1.945 /_   39.9 =     1.4926 +j     1.247
19991     3           2.0587 /_  -74.9 =    0.53498 +j   -1.9879
------------
19991     0           2.1588 /_  -20.1 =     2.0276 +j  -0.74097
19991     0            1.945 /_ -140.1 =    -1.4926 +j    -1.247
19991     0           2.0587 /_  105.1 =   -0.53498 +j    1.9879

ELEMENT = "Transformer.TRAFOSE"
19991     1           2.1588 /_  -20.1 =     2.0276 +j  -0.74097
19991     2            1.945 /_ -140.1 =    -1.4926 +j    -1.247
19991     3           2.0587 /_  105.1 =   -0.53498 +j    1.9879
19991     0                0 /_    0.0 =          0 +j         0
------------
19990     1           21.931 /_  133.5 =    -15.088 +j    15.915
19990     2           20.267 /_    8.7 =     20.031 +j    3.0824
19990     3            19.41 /_ -107.5 =    -5.8211 +j   -18.516
19990     0           1.0015 /_  -28.7 =    0.87818 +j  -0.48154

ELEMENT = "Line.1311112"
6023      1           21.931 /_  133.5 =    -15.088 +j    15.916
6023      2           20.267 /_    8.7 =     20.031 +j    3.0822
6023      3            19.41 /_ -107.5 =    -5.8214 +j   -18.516
------------
6065      1           21.931 /_  -46.5 =     15.088 +j   -15.915
6065      2           20.267 /_ -171.3 =    -20.031 +j   -3.0824
6065      3            19.41 /_   72.5 =     5.8211 +j    18.516

ELEMENT = "Line.1306019"
6023      1           21.931 /_  -46.5 =     15.088 +j   -15.916
6023      2           20.267 /_ -171.3 =    -20.031 +j   -3.0822
6023      3            19.41 /_   72.5 =     5.8214 +j    18.516
------------
6022      1           21.931 /_  133.5 =    -15.088 +j    15.916
6022      2           20.267 /_    8.7 =     20.032 +j     3.082
6022      3            19.41 /_ -107.5 =    -5.8217 +j   -18.516

ELEMENT = "Line.1306020"
6022      1           21.931 /_  -46.5 =     15.088 +j   -15.916
6022      2           20.267 /_ -171.3 =    -20.032 +j    -3.082
6022      3            19.41 /_   72.5 =     5.8217 +j    18.516
------------
6025      1           21.931 /_  133.5 =    -15.088 +j    15.916
6025      2           20.267 /_    8.7 =     20.032 +j    3.0817
6025      3            19.41 /_ -107.5 =    -5.8219 +j   -18.516

ELEMENT = "Line.1306017"
6025      1           21.931 /_  -46.5 =     15.088 +j   -15.916
6025      2           20.267 /_ -171.3 =    -20.032 +j   -3.0817
6025      3            19.41 /_   72.5 =     5.8219 +j    18.516
------------
6024      1           21.931 /_  133.5 =    -15.088 +j    15.916
6024      2           20.267 /_    8.7 =     20.032 +j    3.0814
6024      3            19.41 /_ -107.5 =    -5.8223 +j   -18.516

ELEMENT = "Line.3548834"
4215      1           21.931 /_  133.5 =    -15.088 +j    15.917
4215      2           20.268 /_    8.7 =     20.032 +j    3.0811
4215      3            19.41 /_ -107.5 =    -5.8227 +j   -18.516
------------
6024      1           21.931 /_  -46.5 =     15.088 +j   -15.916
6024      2           20.267 /_ -171.3 =    -20.032 +j   -3.0814
6024      3            19.41 /_   72.5 =     5.8223 +j    18.516

ELEMENT = "Line.3548826"
4215      1           21.931 /_  -46.5 =     15.088 +j   -15.917
4215      2           20.268 /_ -171.3 =    -20.032 +j   -3.0811
4215      3            19.41 /_   72.5 =     5.8227 +j    18.516
------------
4216      1           21.931 /_  133.5 =    -15.087 +j    15.917
4216      2           20.268 /_    8.7 =     20.032 +j    3.0806
4216      3            19.41 /_ -107.5 =    -5.8233 +j   -18.516

ELEMENT = "Line.3548142"
4216      1           21.931 /_  -46.5 =     15.087 +j   -15.917
4216      2           20.268 /_ -171.3 =    -20.032 +j   -3.0806
4216      3            19.41 /_   72.5 =     5.8233 +j    18.516
------------
6039      1           21.931 /_  133.5 =    -15.087 +j    15.917
6039      2           20.268 /_    8.7 =     20.032 +j    3.0803
6039      3            19.41 /_ -107.5 =    -5.8236 +j   -18.516

ELEMENT = "Line.1306000"
6038      1           21.931 /_  133.5 =    -15.087 +j    15.918
6038      2           20.268 /_    8.7 =     20.033 +j      3.08
6038      3            19.41 /_ -107.5 =    -5.8239 +j   -18.516
------------
6039      1           21.931 /_  -46.5 =     15.087 +j   -15.917
6039      2           20.268 /_ -171.3 =    -20.032 +j   -3.0803
6039      3            19.41 /_   72.5 =     5.8236 +j    18.516

ELEMENT = "Line.1306001"
6038      1           21.931 /_  -46.5 =     15.087 +j   -15.918
6038      2           20.268 /_ -171.3 =    -20.033 +j     -3.08
6038      3            19.41 /_   72.5 =     5.8239 +j    18.516
------------
6037      1           21.932 /_  133.5 =    -15.087 +j    15.918
6037      2           20.268 /_    8.7 =     20.033 +j    3.0797
6037      3           19.411 /_ -107.5 =    -5.8243 +j   -18.516

ELEMENT = "Line.1306002"
6036      1           21.932 /_  133.5 =    -15.087 +j    15.918
6036      2           20.268 /_    8.7 =     20.033 +j    3.0793
6036      3           19.411 /_ -107.5 =    -5.8247 +j   -18.516
------------
6037      1           21.932 /_  -46.5 =     15.087 +j   -15.918
6037      2           20.268 /_ -171.3 =    -20.033 +j   -3.0797
6037      3           19.411 /_   72.5 =     5.8243 +j    18.516

ELEMENT = "Line.1306003"
6035      1           21.932 /_  133.5 =    -15.086 +j    15.919
6035      2           20.268 /_    8.7 =     20.033 +j     3.079
6035      3           19.411 /_ -107.5 =     -5.825 +j   -18.516
------------
6036      1           21.932 /_  -46.5 =     15.087 +j   -15.918
6036      2           20.268 /_ -171.3 =    -20.033 +j   -3.0793
6036      3           19.411 /_   72.5 =     5.8247 +j    18.516

ELEMENT = "Line.1306004"
6034      1           21.637 /_  133.4 =     -14.86 +j    15.727
6034      2           19.977 /_    8.6 =     19.754 +j    2.9793
6034      3           19.117 /_ -107.6 =    -5.7718 +j   -18.225
------------
6035      1           21.637 /_  -46.6 =     14.861 +j   -15.726
6035      2           19.977 /_ -171.4 =    -19.754 +j   -2.9796
6035      3           19.117 /_   72.4 =     5.7714 +j    18.225

ELEMENT = "Line.1306005"
6033      1           21.637 /_  133.4 =     -14.86 +j    15.727
6033      2           19.978 /_    8.6 =     19.754 +j     2.979
6033      3           19.117 /_ -107.6 =    -5.7722 +j   -18.225
------------
6034      1           21.637 /_  -46.6 =      14.86 +j   -15.727
6034      2           19.977 /_ -171.4 =    -19.754 +j   -2.9793
6034      3           19.117 /_   72.4 =     5.7718 +j    18.225

ELEMENT = "Line.1306006"
6032      1           21.637 /_  133.4 =     -14.86 +j    15.727
6032      2           19.978 /_    8.6 =     19.754 +j    2.9786
6032      3           19.117 /_ -107.6 =    -5.7726 +j   -18.225
------------
6033      1           21.637 /_  -46.6 =      14.86 +j   -15.727
6033      2           19.978 /_ -171.4 =    -19.754 +j    -2.979
6033      3           19.117 /_   72.4 =     5.7722 +j    18.225

ELEMENT = "Line.1306007"
6031      1           21.637 /_  133.4 =     -14.86 +j    15.728
6031      2           19.978 /_    8.6 =     19.755 +j    2.9783
6031      3           19.117 /_ -107.6 =    -5.7729 +j   -18.225
------------
6032      1           21.637 /_  -46.6 =      14.86 +j   -15.727
6032      2           19.978 /_ -171.4 =    -19.754 +j   -2.9786
6032      3           19.117 /_   72.4 =     5.7726 +j    18.225

ELEMENT = "Line.1306008"
6030      1           21.092 /_  133.5 =    -14.531 +j    15.288
6030      2           19.429 /_    8.6 =     19.209 +j    2.9131
6030      3           18.571 /_ -107.4 =    -5.5568 +j    -17.72
------------
6031      1           21.092 /_  -46.5 =     14.531 +j   -15.288
6031      2           19.429 /_ -171.4 =    -19.209 +j   -2.9133
6031      3            18.57 /_   72.6 =     5.5565 +j     17.72

ELEMENT = "Line.1306009"
6030      1           21.092 /_  -46.5 =     14.531 +j   -15.288
6030      2           19.429 /_ -171.4 =    -19.209 +j   -2.9131
6030      3           18.571 /_   72.6 =     5.5568 +j     17.72
------------
6029      1           21.092 /_  133.5 =    -14.531 +j    15.288
6029      2           19.429 /_    8.6 =      19.21 +j    2.9127
6029      3           18.571 /_ -107.4 =    -5.5572 +j    -17.72

ELEMENT = "Line.1306010"
6028      1           21.092 /_  133.5 =     -14.53 +j    15.289
6028      2           19.429 /_    8.6 =      19.21 +j    2.9122
6028      3           18.571 /_ -107.4 =    -5.5577 +j    -17.72
------------
6029      1           21.092 /_  -46.5 =     14.531 +j   -15.288
6029      2           19.429 /_ -171.4 =     -19.21 +j   -2.9127
6029      3           18.571 /_   72.6 =     5.5572 +j     17.72

ELEMENT = "Line.1306011"
6027      1           21.092 /_  133.5 =     -14.53 +j    15.289
6027      2            19.43 /_    8.6 =      19.21 +j    2.9119
6027      3           18.571 /_ -107.4 =    -5.5581 +j    -17.72
------------
6028      1           21.092 /_  -46.5 =      14.53 +j   -15.289
6028      2           19.429 /_ -171.4 =     -19.21 +j   -2.9122
6028      3           18.571 /_   72.6 =     5.5577 +j     17.72

ELEMENT = "Line.1306012"
6026      1           21.092 /_  133.5 =     -14.53 +j    15.289
6026      2            19.43 /_    8.6 =      19.21 +j    2.9117
6026      3           18.571 /_ -107.4 =    -5.5583 +j    -17.72
------------
6027      1           21.092 /_  -46.5 =      14.53 +j   -15.289
6027      2            19.43 /_ -171.4 =     -19.21 +j   -2.9119
6027      3           18.571 /_   72.6 =     5.5581 +j     17.72

ELEMENT = "Line.1306013"
6026      1           21.092 /_  -46.5 =      14.53 +j   -15.289
6026      2            19.43 /_ -171.4 =     -19.21 +j   -2.9117
6026      3           18.571 /_   72.6 =     5.5583 +j     17.72
------------
6048      1           21.093 /_  133.5 =     -14.53 +j     15.29
6048      2            19.43 /_    8.6 =      19.21 +j    2.9113
6048      3           18.571 /_ -107.4 =    -5.5588 +j    -17.72

ELEMENT = "Line.3927480"
6048      1       8.806E-005 /_   59.8 =  4.424E-005 +j 7.614E-005
6048      2       8.806E-005 /_  -60.1 =  4.3854E-005 +j -7.6363E-005
6048      3      8.8088E-005 /_  179.9 =  -8.8087E-005 +j 2.1409E-007
------------
4197      1      2.9104E-010 /_  180.0 =  -2.9104E-010 +j         0
4197      2      1.1642E-010 /_    0.0 =  1.1642E-010 +j         0
4197      3      3.6814E-010 /_  -18.4 =  3.4925E-010 +j -1.1642E-010

ELEMENT = "Line.1305995"
6057      1           21.093 /_  133.5 =    -14.529 +j    15.291
6057      2            19.43 /_    8.6 =     19.211 +j    2.9106
6057      3           18.571 /_ -107.4 =    -5.5597 +j    -17.72
------------
6048      1           21.093 /_  -46.5 =      14.53 +j    -15.29
6048      2            19.43 /_ -171.4 =     -19.21 +j   -2.9112
6048      3           18.571 /_   72.6 =     5.5589 +j     17.72

ELEMENT = "Line.1305987"
6056      1           21.093 /_  133.5 =    -14.529 +j    15.291
6056      2            19.43 /_    8.6 =     19.211 +j    2.9103
6056      3           18.571 /_ -107.4 =      -5.56 +j    -17.72
------------
6057      1           21.093 /_  -46.5 =     14.529 +j   -15.291
6057      2            19.43 /_ -171.4 =    -19.211 +j   -2.9106
6057      3           18.571 /_   72.6 =     5.5597 +j     17.72

ELEMENT = "Line.1305988"
6055      1           21.093 /_  133.5 =    -14.529 +j    15.291
6055      2            19.43 /_    8.6 =     19.211 +j    2.9099
6055      3           18.572 /_ -107.4 =    -5.5604 +j    -17.72
------------
6056      1           21.093 /_  -46.5 =     14.529 +j   -15.291
6056      2            19.43 /_ -171.4 =    -19.211 +j   -2.9103
6056      3           18.571 /_   72.6 =       5.56 +j     17.72

ELEMENT = "Line.1305989"
6055      1           21.093 /_  -46.5 =     14.529 +j   -15.291
6055      2            19.43 /_ -171.4 =    -19.211 +j   -2.9099
6055      3           18.572 /_   72.6 =     5.5604 +j     17.72
------------
6054      1           21.093 /_  133.5 =    -14.529 +j    15.292
6054      2           19.431 /_    8.6 =     19.211 +j    2.9096
6054      3           18.572 /_ -107.4 =    -5.5608 +j    -17.72

ELEMENT = "Line.1305990"
6053      1           21.093 /_  133.5 =    -14.529 +j    15.292
6053      2           19.431 /_    8.6 =     19.212 +j    2.9093
6053      3           18.572 /_ -107.4 =    -5.5611 +j    -17.72
------------
6054      1           21.093 /_  -46.5 =     14.529 +j   -15.292
6054      2           19.431 /_ -171.4 =    -19.211 +j   -2.9096
6054      3           18.572 /_   72.6 =     5.5608 +j     17.72

ELEMENT = "Line.1305991"
6052      1           21.093 /_  133.5 =    -14.528 +j    15.292
6052      2           19.431 /_    8.6 =     19.212 +j     2.909
6052      3           18.572 /_ -107.4 =    -5.5615 +j    -17.72
------------
6053      1           21.093 /_  -46.5 =     14.529 +j   -15.292
6053      2           19.431 /_ -171.4 =    -19.212 +j   -2.9093
6053      3           18.572 /_   72.6 =     5.5611 +j     17.72

ELEMENT = "Line.1305992"
6051      1           21.093 /_  133.5 =    -14.528 +j    15.292
6051      2           19.431 /_    8.6 =     19.212 +j    2.9087
6051      3           18.572 /_ -107.4 =    -5.5618 +j    -17.72
------------
6052      1           21.093 /_  -46.5 =     14.528 +j   -15.292
6052      2           19.431 /_ -171.4 =    -19.212 +j    -2.909
6052      3           18.572 /_   72.6 =     5.5615 +j     17.72

ELEMENT = "Line.1305993"
6050      1           21.094 /_  133.5 =    -14.528 +j    15.293
6050      2           19.431 /_    8.6 =     19.212 +j    2.9084
6050      3           18.572 /_ -107.4 =    -5.5622 +j    -17.72
------------
6051      1           21.093 /_  -46.5 =     14.528 +j   -15.292
6051      2           19.431 /_ -171.4 =    -19.212 +j   -2.9087
6051      3           18.572 /_   72.6 =     5.5618 +j     17.72

ELEMENT = "Line.1305994"
6049      1           21.094 /_  133.5 =    -14.528 +j    15.293
6049      2           19.431 /_    8.6 =     19.212 +j     2.908
6049      3           18.572 /_ -107.4 =    -5.5626 +j    -17.72
------------
6050      1           21.094 /_  -46.5 =     14.528 +j   -15.293
6050      2           19.431 /_ -171.4 =    -19.212 +j   -2.9084
6050      3           18.572 /_   72.6 =     5.5622 +j     17.72

ELEMENT = "Line.1307376"
6062      1           21.094 /_  133.5 =    -14.528 +j    15.294
6062      2           19.431 /_    8.6 =     19.213 +j    2.9077
6062      3           18.572 /_ -107.4 =     -5.563 +j    -17.72
------------
6049      1           21.094 /_  -46.5 =     14.528 +j   -15.293
6049      2           19.431 /_ -171.4 =    -19.212 +j    -2.908
6049      3           18.572 /_   72.6 =     5.5626 +j     17.72

ELEMENT = "Line.1305983"
6061      1           21.094 /_  133.5 =    -14.528 +j    15.294
6061      2           19.431 /_    8.6 =     19.213 +j    2.9074
6061      3           18.572 /_ -107.4 =    -5.5634 +j    -17.72
------------
6062      1           21.094 /_  -46.5 =     14.528 +j   -15.294
6062      2           19.431 /_ -171.4 =    -19.213 +j   -2.9077
6062      3           18.572 /_   72.6 =      5.563 +j     17.72

ELEMENT = "Line.1305984"
6061      1           21.094 /_  -46.5 =     14.528 +j   -15.294
6061      2           19.431 /_ -171.4 =    -19.213 +j   -2.9074
6061      3           18.572 /_   72.6 =     5.5634 +j     17.72
------------
6060      1           21.094 /_  133.5 =    -14.527 +j    15.294
6060      2           19.432 /_    8.6 =     19.213 +j    2.9071
6060      3           18.573 /_ -107.4 =    -5.5637 +j    -17.72

ELEMENT = "Line.1305985"
6060      1           21.094 /_  -46.5 =     14.527 +j   -15.294
6060      2           19.432 /_ -171.4 =    -19.213 +j   -2.9071
6060      3           18.573 /_   72.6 =     5.5637 +j     17.72
------------
6059      1           21.094 /_  133.5 =    -14.527 +j    15.294
6059      2           19.432 /_    8.6 =     19.213 +j    2.9068
6059      3           18.573 /_ -107.4 =     -5.564 +j    -17.72

ELEMENT = "Line.1305986"
6058      1           21.094 /_  133.5 =    -14.527 +j    15.295
6058      2           19.432 /_    8.6 =     19.213 +j    2.9065
6058      3           18.573 /_ -107.4 =    -5.5644 +j    -17.72
------------
6059      1           21.094 /_  -46.5 =     14.527 +j   -15.294
6059      2           19.432 /_ -171.4 =    -19.213 +j   -2.9068
6059      3           18.573 /_   72.6 =      5.564 +j     17.72

ELEMENT = "Line.1307206"
5167      1           21.094 /_  133.5 =    -14.527 +j    15.295
5167      2           19.432 /_    8.6 =     19.213 +j    2.9062
5167      3           18.573 /_ -107.4 =    -5.5647 +j    -17.72
------------
6058      1           21.094 /_  -46.5 =     14.527 +j   -15.295
6058      2           19.432 /_ -171.4 =    -19.213 +j   -2.9065
6058      3           18.573 /_   72.6 =     5.5644 +j     17.72

ELEMENT = "Line.1307380"
5071      1           21.095 /_  133.5 =    -14.526 +j    15.296
5071      2           19.432 /_    8.6 =     19.214 +j     2.905
5071      3           18.573 /_ -107.4 =    -5.5661 +j    -17.72
------------
5166      1           21.094 /_  -46.5 =     14.527 +j   -15.295
5166      2           19.432 /_ -171.4 =    -19.213 +j   -2.9062
5166      3           18.573 /_   72.6 =     5.5647 +j     17.72

ELEMENT = "Line.1308319"
4284      1           21.095 /_  133.5 =    -14.526 +j    15.297
4284      2           19.433 /_    8.6 =     19.214 +j    2.9045
4284      3           18.573 /_ -107.4 =    -5.5667 +j    -17.72
------------
5071      1           21.095 /_  -46.5 =     14.526 +j   -15.296
5071      2           19.432 /_ -171.4 =    -19.214 +j    -2.905
5071      3           18.573 /_   72.6 =     5.5661 +j     17.72

ELEMENT = "Line.1308320"
4284      1           21.095 /_  -46.5 =     14.526 +j   -15.297
4284      2           19.433 /_ -171.4 =    -19.214 +j   -2.9045
4284      3           18.573 /_   72.6 =     5.5667 +j     17.72
------------
4285      1           21.095 /_  133.5 =    -14.526 +j    15.297
4285      2           19.433 /_    8.6 =     19.215 +j    2.9039
4285      3           18.574 /_ -107.4 =    -5.5674 +j    -17.72

ELEMENT = "Line.1308318"
4285      1           21.095 /_  -46.5 =     14.526 +j   -15.297
4285      2           19.433 /_ -171.4 =    -19.215 +j   -2.9039
4285      3           18.574 /_   72.6 =     5.5674 +j     17.72
------------
4286      1           21.096 /_  133.5 =    -14.524 +j    15.299
4286      2           19.434 /_    8.6 =     19.216 +j    2.9018
4286      3           18.574 /_ -107.4 =    -5.5698 +j    -17.72

ELEMENT = "Line.1308317"
5165      1           21.096 /_  133.5 =    -14.524 +j    15.301
5165      2           19.434 /_    8.6 =     19.217 +j    2.9005
5165      3           18.575 /_ -107.5 =    -5.5713 +j    -17.72
------------
4286      1           21.096 /_  -46.5 =     14.524 +j   -15.299
4286      2           19.434 /_ -171.4 =    -19.216 +j   -2.9018
4286      3           18.574 /_   72.6 =     5.5698 +j     17.72

ELEMENT = "Line.1307207"
5165      1           21.096 /_  -46.5 =     14.524 +j   -15.301
5165      2           19.434 /_ -171.4 =    -19.217 +j   -2.9005
5165      3           18.575 /_   72.5 =     5.5713 +j     17.72
------------
5171      1           21.097 /_  133.5 =    -14.522 +j    15.303
5171      2           19.435 /_    8.6 =     19.218 +j    2.8986
5171      3           18.575 /_ -107.5 =    -5.5735 +j    -17.72

ELEMENT = "Line.1307202"
5173      1           21.097 /_  133.5 =    -14.522 +j    15.304
5173      2           19.436 /_    8.6 =     19.218 +j    2.8974
5173      3           18.576 /_ -107.5 =    -5.5748 +j    -17.72
------------
5171      1           21.097 /_  -46.5 =     14.522 +j   -15.303
5171      2           19.435 /_ -171.4 =    -19.218 +j   -2.8986
5171      3           18.575 /_   72.5 =     5.5735 +j     17.72

ELEMENT = "Line.1307201"
5172      1           21.098 /_  133.5 =     -14.52 +j    15.306
5172      2           19.437 /_    8.6 =      19.22 +j    2.8952
5172      3           18.577 /_ -107.5 =    -5.5774 +j    -17.72
------------
5173      1           21.097 /_  -46.5 =     14.522 +j   -15.304
5173      2           19.436 /_ -171.4 =    -19.218 +j   -2.8974
5173      3           18.576 /_   72.5 =     5.5748 +j     17.72

ELEMENT = "Line.11738464"
5170      1           21.099 /_  133.5 =    -14.519 +j    15.308
5170      2           19.437 /_    8.6 =     19.221 +j    2.8929
5170      3           18.577 /_ -107.5 =      -5.58 +j    -17.72
------------
5172      1           21.098 /_  -46.5 =      14.52 +j   -15.306
5172      2           19.437 /_ -171.4 =     -19.22 +j   -2.8952
5172      3           18.577 /_   72.5 =     5.5774 +j     17.72

ELEMENT = "Line.1307203"
5170      1           21.099 /_  -46.5 =     14.519 +j   -15.308
5170      2           19.437 /_ -171.4 =    -19.221 +j   -2.8929
5170      3           18.577 /_   72.5 =       5.58 +j     17.72
------------
5174      1           21.099 /_  133.5 =    -14.518 +j     15.31
5174      2           19.438 /_    8.6 =     19.222 +j     2.891
5174      3           18.578 /_ -107.5 =    -5.5822 +j    -17.72

ELEMENT = "Line.1307200"
5174      1           21.099 /_  -46.5 =     14.518 +j    -15.31
5174      2           19.438 /_ -171.4 =    -19.222 +j    -2.891
5174      3           18.578 /_   72.5 =     5.5822 +j     17.72
------------
5175      1             21.1 /_  133.5 =    -14.517 +j    15.311
5175      2           19.439 /_    8.5 =     19.223 +j    2.8898
5175      3           18.579 /_ -107.5 =    -5.5836 +j    -17.72

ELEMENT = "Line.1307199"
5175      1             21.1 /_  -46.5 =     14.517 +j   -15.311
5175      2           19.439 /_ -171.5 =    -19.223 +j   -2.8898
5175      3           18.579 /_   72.5 =     5.5836 +j     17.72
------------
5181      1             21.1 /_  133.5 =    -14.516 +j    15.313
5181      2            19.44 /_    8.5 =     19.224 +j     2.888
5181      3           18.579 /_ -107.5 =    -5.5857 +j    -17.72

ELEMENT = "Line.1307379"
5072      1           21.093 /_  133.5 =    -14.511 +j    15.309
5072      2           19.433 /_    8.5 =     19.217 +j    2.8855
5072      3           18.572 /_ -107.5 =    -5.5846 +j   -17.713
------------
5181      1           21.093 /_  -46.5 =     14.512 +j   -15.307
5181      2           19.432 /_ -171.5 =    -19.216 +j   -2.8869
5181      3           18.572 /_   72.5 =      5.583 +j    17.713

ELEMENT = "Line.1307196"
5180      1        0.0075143 /_  126.9 =  -0.0045099 +j 0.0060104
5180      2        0.0075149 /_    6.9 =  0.0074603 +j 0.00090466
5180      3        0.0075181 /_ -113.1 =  -0.0029503 +j -0.0069151
------------
5181      1        0.0074206 /_  -51.3 =  0.0046362 +j -0.005794
5181      2         0.007421 /_ -171.3 =  -0.0073357 +j -0.0011221
5181      3        0.0074242 /_   68.7 =  0.0026995 +j  0.006916

ELEMENT = "Line.1307378"
5072      1           21.093 /_  -46.5 =     14.511 +j   -15.309
5072      2           19.433 /_ -171.5 =    -19.217 +j   -2.8855
5072      3           18.572 /_   72.5 =     5.5846 +j    17.713
------------
5177      1           21.094 /_  133.5 =     -14.51 +j     15.31
5177      2           19.433 /_    8.5 =     19.218 +j    2.8842
5177      3           18.573 /_ -107.5 =    -5.5861 +j   -17.713

ELEMENT = "Line.1307198"
5177      1           21.094 /_  -46.5 =      14.51 +j    -15.31
5177      2           19.433 /_ -171.5 =    -19.218 +j   -2.8842
5177      3           18.573 /_   72.5 =     5.5861 +j    17.713
------------
5176      1           21.094 /_  133.5 =    -14.509 +j    15.311
5176      2           19.434 /_    8.5 =     19.219 +j    2.8829
5176      3           18.573 /_ -107.5 =    -5.5876 +j   -17.713

ELEMENT = "Line.1307204"
5168      1          0.00753 /_  126.6 =  -0.0044929 +j 0.0060427
5168      2        0.0075307 /_    6.7 =  0.0074798 +j 0.00087377
5168      3        0.0075339 /_ -113.4 =  -0.0029869 +j -0.0069165
------------
5169      1        0.0075158 /_  -53.1 =  0.0045113 +j -0.0060112
5169      2        0.0075164 /_ -173.1 =  -0.0074616 +j -0.00090546
5169      3        0.0075196 /_   66.9 =  0.0029503 +j 0.0069167

ELEMENT = "Line.1307377"
5179      1           21.094 /_  133.5 =    -14.509 +j    15.312
5179      2           19.434 /_    8.5 =     19.219 +j    2.8818
5179      3           18.573 /_ -107.5 =    -5.5889 +j   -17.713
------------
5176      1           21.094 /_  -46.5 =     14.509 +j   -15.311
5176      2           19.434 /_ -171.5 =    -19.219 +j   -2.8829
5176      3           18.573 /_   72.5 =     5.5876 +j    17.713

ELEMENT = "Line.1307197"
5179      1           21.094 /_  -46.5 =     14.509 +j   -15.312
5179      2           19.434 /_ -171.5 =    -19.219 +j   -2.8818
5179      3           18.573 /_   72.5 =     5.5889 +j    17.713
------------
5178      1           21.094 /_  133.5 =    -14.508 +j    15.313
5178      2           19.434 /_    8.5 =      19.22 +j    2.8814
5178      3           18.574 /_ -107.5 =    -5.5894 +j   -17.713

ELEMENT = "Line.1307273"
5178      1           21.094 /_  -46.5 =     14.508 +j   -15.313
5178      2           19.434 /_ -171.5 =     -19.22 +j   -2.8814
5178      3           18.574 /_   72.5 =     5.5894 +j    17.713
------------
5254      1           21.095 /_  133.4 =    -14.507 +j    15.315
5254      2           19.435 /_    8.5 =     19.221 +j    2.8794
5254      3           18.574 /_ -107.5 =    -5.5916 +j   -17.713

ELEMENT = "Line.1307113"
5254      1           21.095 /_  -46.6 =     14.507 +j   -15.315
5254      2           19.435 /_ -171.5 =    -19.221 +j   -2.8794
5254      3           18.574 /_   72.5 =     5.5916 +j    17.713
------------
5256      1           21.095 /_  133.4 =    -14.507 +j    15.316
5256      2           19.436 /_    8.5 =     19.221 +j    2.8783
5256      3           18.575 /_ -107.5 =    -5.5929 +j   -17.713

ELEMENT = "Line.1307112"
5256      1           21.095 /_  -46.6 =     14.507 +j   -15.316
5256      2           19.436 /_ -171.5 =    -19.221 +j   -2.8783
5256      3           18.575 /_   72.5 =     5.5929 +j    17.713
------------
5255      1           21.096 /_  133.4 =    -14.506 +j    15.317
5255      2           19.436 /_    8.5 =     19.222 +j    2.8774
5255      3           18.575 /_ -107.5 =    -5.5939 +j   -17.713

ELEMENT = "Line.1307271"
5102      1            21.08 /_  133.4 =    -14.491 +j    15.309
5102      2           19.419 /_    8.5 =     19.206 +j    2.8712
5102      3           18.558 /_ -107.5 =    -5.5912 +j   -17.696
------------
5255      1           21.079 /_  -46.6 =     14.492 +j   -15.308
5255      2           19.419 /_ -171.5 =    -19.205 +j   -2.8725
5255      3           18.557 /_   72.5 =     5.5898 +j    17.696

ELEMENT = "Line.1307272"
5257      1         0.017144 /_  145.1 =  -0.014055 +j 0.0098172
5257      2         0.017872 /_   12.7 =   0.017432 +j 0.0039371
5257      3         0.017882 /_ -107.3 =  -0.0053178 +j -0.017073
------------
5101      1         0.017089 /_  -31.0 =    0.01465 +j -0.0087988
5101      2         0.017561 /_ -163.6 =  -0.016846 +j -0.0049612
5101      3         0.017572 /_   76.4 =  0.0041367 +j  0.017078

ELEMENT = "Line.1307269"
5102      1            21.08 /_  -46.6 =     14.491 +j   -15.309
5102      2           19.419 /_ -171.5 =    -19.206 +j   -2.8712
5102      3           18.558 /_   72.5 =     5.5912 +j    17.696
------------
5103      1            21.08 /_  133.4 =     -14.49 +j    15.311
5103      2            19.42 /_    8.5 =     19.207 +j    2.8697
5103      3           18.558 /_ -107.5 =    -5.5929 +j   -17.696

ELEMENT = "Line.1307111"
5258      1         0.017247 /_  141.9 =  -0.013577 +j  0.010636
5258      2         0.018173 /_    9.9 =   0.017904 +j 0.0031137
5258      3         0.018183 /_ -110.2 =  -0.0062675 +j -0.017069
------------
5257      1         0.017144 /_  -34.9 =   0.014055 +j -0.0098172
5257      2         0.017872 /_ -167.3 =  -0.017432 +j -0.0039371
5257      3         0.017882 /_   72.7 =  0.0053178 +j  0.017073

ELEMENT = "Line.1307268"
5103      1            21.08 /_  -46.6 =      14.49 +j   -15.311
5103      2            19.42 /_ -171.5 =    -19.207 +j   -2.8697
5103      3           18.558 /_   72.5 =     5.5929 +j    17.696
------------
5104      1            21.08 /_  133.4 =     -14.49 +j    15.311
5104      2            19.42 /_    8.5 =     19.207 +j    2.8691
5104      3           18.559 /_ -107.5 =    -5.5937 +j   -17.696

ELEMENT = "Line.1307110"
5258      1         0.017247 /_  -38.1 =   0.013577 +j -0.010636
5258      2         0.018173 /_ -170.1 =  -0.017904 +j -0.0031137
5258      3         0.018183 /_   69.8 =  0.0062675 +j  0.017069
------------
5260      1         0.017341 /_  139.9 =  -0.013267 +j  0.011166
5260      2         0.018391 /_    8.1 =   0.018209 +j 0.0025813
5260      3         0.018401 /_ -112.0 =  -0.0068816 +j -0.017066

ELEMENT = "Line.1307267"
5104      1            21.08 /_  -46.6 =      14.49 +j   -15.311
5104      2            19.42 /_ -171.5 =    -19.207 +j   -2.8691
5104      3           18.559 /_   72.5 =     5.5937 +j    17.696
------------
5107      1           21.081 /_  133.4 =    -14.489 +j    15.312
5107      2           19.421 /_    8.5 =     19.208 +j     2.868
5107      3           18.559 /_ -107.5 =     -5.595 +j   -17.696

ELEMENT = "Line.1307109"
5260      1        0.0042845 /_   59.7 =  0.0021608 +j 0.0036997
5260      2       0.00044017 /_  -60.1 =  0.00021952 +j -0.00038153
5260      3       0.00044051 /_  179.9 =  -0.0004405 +j 1.0449E-006
------------
5261      1        0.0038446 /_ -120.3 =  -0.001939 +j -0.0033199
5261      2      8.1162E-007 /_ -150.2 =  -7.0425E-007 +j -4.0344E-007
5261      3      8.1221E-007 /_   89.8 =  3.1869E-009 +j 8.122E-007

ELEMENT = "Line.1307108"
...