RedeDSS/CMC-01P3_VLN_Node.Txt

LINE-GROUND and LINE-LINE VOLTAGES BY BUS & NODE

Bus   Node    VLN (kV)   Angle      pu     Base kV    Node-Node   VLL (kV)  Angle      pu

19991 1       79.616 /_   -0.1   0.99927   138.000        1-2      137.9 /_   29.9   0.99928
   -  2       79.622 /_ -120.0   0.99934   138.000        2-3     137.92 /_  -90.1    0.9994
   -  3       79.626 /_  119.9   0.99939   138.000        3-1     137.91 /_  149.9   0.99933
19990 1       7.9571 /_  -30.1    0.9987    13.800        1-2     13.781 /_   -0.1   0.99859
   -  2       7.9564 /_ -150.1   0.99862    13.800        2-3     13.782 /_ -120.1   0.99873
   -  3       7.9581 /_   89.9   0.99883    13.800        3-1     13.784 /_  119.9   0.99884
6023  1       7.9566 /_  -30.1   0.99864    13.800        1-2      13.78 /_   -0.1   0.99852
   -  2       7.9559 /_ -150.1   0.99855    13.800        2-3     13.782 /_ -120.1   0.99866
   -  3       7.9576 /_   89.9   0.99877    13.800        3-1     13.783 /_  119.9   0.99877
6065  1       7.9571 /_  -30.1    0.9987    13.800        1-2     13.781 /_   -0.1   0.99859
   -  2       7.9564 /_ -150.1   0.99862    13.800        2-3     13.782 /_ -120.1   0.99873
   -  3       7.9581 /_   89.9   0.99883    13.800        3-1     13.784 /_  119.9   0.99884
6022  1       7.9561 /_  -30.1   0.99858    13.800        1-2     13.779 /_   -0.1   0.99847
   -  2       7.9555 /_ -150.1    0.9985    13.800        2-3     13.781 /_ -120.1   0.99862
   -  3       7.9572 /_   89.9   0.99872    13.800        3-1     13.782 /_  119.9   0.99872
6025  1       7.9557 /_  -30.1   0.99852    13.800        1-2     13.778 /_   -0.1    0.9984
   -  2       7.9551 /_ -150.1   0.99845    13.800        2-3      13.78 /_ -120.1   0.99856
   -  3       7.9568 /_   89.9   0.99866    13.800        3-1     13.782 /_  119.9   0.99867
6024  1       7.9551 /_  -30.1   0.99845    13.800        1-2     13.777 /_   -0.1   0.99833
   -  2       7.9545 /_ -150.1   0.99838    13.800        2-3     13.779 /_ -120.1   0.99849
   -  3       7.9562 /_   89.9    0.9986    13.800        3-1     13.781 /_  119.9    0.9986
4215  1       7.9544 /_  -30.1   0.99836    13.800        1-2     13.776 /_   -0.1   0.99824
   -  2       7.9539 /_ -150.1    0.9983    13.800        2-3     13.778 /_ -120.1   0.99841
   -  3       7.9556 /_   89.9   0.99852    13.800        3-1      13.78 /_  119.9   0.99852
4216  1       7.9529 /_  -30.1   0.99817    13.800        1-2     13.773 /_   -0.1   0.99806
   -  2       7.9525 /_ -150.1   0.99813    13.800        2-3     13.776 /_ -120.1   0.99825
   -  3       7.9543 /_   89.9   0.99835    13.800        3-1     13.777 /_  119.9   0.99834
6039  1       7.9523 /_  -30.1    0.9981    13.800        1-2     13.772 /_   -0.1   0.99798
   -  2        7.952 /_ -150.1   0.99806    13.800        2-3     13.775 /_ -120.1   0.99818
   -  3       7.9537 /_   89.9   0.99828    13.800        3-1     13.776 /_  119.9   0.99827
6038  1       7.9517 /_  -30.1   0.99803    13.800        1-2     13.771 /_   -0.1   0.99791
   -  2       7.9514 /_ -150.1   0.99799    13.800        2-3     13.774 /_ -120.1   0.99811
   -  3       7.9532 /_   89.9   0.99821    13.800        3-1     13.775 /_  119.9   0.99821
6037  1       7.9503 /_  -30.1   0.99785    13.800        1-2     13.769 /_   -0.1   0.99774
   -  2       7.9502 /_ -150.1   0.99784    13.800        2-3     13.772 /_ -120.1   0.99796
   -  3        7.952 /_   89.9   0.99806    13.800        3-1     13.773 /_  119.9   0.99805
6036  1       7.9497 /_  -30.1   0.99778    13.800        1-2     13.768 /_   -0.1   0.99766
   -  2       7.9496 /_ -150.1   0.99776    13.800        2-3     13.771 /_ -120.1   0.99789
   -  3       7.9514 /_   89.9   0.99799    13.800        3-1     13.772 /_  119.9   0.99797
6035  1       7.9488 /_  -30.1   0.99766    13.800        1-2     13.766 /_   -0.1   0.99755
   -  2       7.9488 /_ -150.1   0.99766    13.800        2-3      13.77 /_ -120.1   0.99779
   -  3       7.9506 /_   89.9   0.99789    13.800        3-1     13.771 /_  119.9   0.99787
6034  1       7.9482 /_  -30.1   0.99759    13.800        1-2     13.765 /_   -0.1   0.99748
   -  2       7.9483 /_ -150.1   0.99759    13.800        2-3     13.769 /_ -120.1   0.99773
   -  3       7.9501 /_   89.9   0.99782    13.800        3-1      13.77 /_  119.9    0.9978
6033  1       7.9476 /_  -30.1   0.99751    13.800        1-2     13.764 /_   -0.1   0.99739
   -  2       7.9476 /_ -150.1   0.99752    13.800        2-3     13.768 /_ -120.1   0.99765
   -  3       7.9495 /_   89.9   0.99774    13.800        3-1     13.769 /_  119.9   0.99772
6032  1       7.9468 /_  -30.1    0.9974    13.800        1-2     13.763 /_   -0.1   0.99729
   -  2       7.9469 /_ -150.1   0.99742    13.800        2-3     13.766 /_ -120.1   0.99756
   -  3       7.9487 /_   89.9   0.99765    13.800        3-1     13.767 /_  119.9   0.99763
6031  1       7.9462 /_  -30.1   0.99734    13.800        1-2     13.762 /_   -0.1   0.99723
   -  2       7.9464 /_ -150.1   0.99736    13.800        2-3     13.765 /_ -120.1    0.9975
   -  3       7.9483 /_   89.9   0.99759    13.800        3-1     13.766 /_  119.9   0.99757
6030  1       7.9457 /_  -30.2   0.99727    13.800        1-2     13.761 /_   -0.1   0.99716
   -  2       7.9459 /_ -150.1    0.9973    13.800        2-3     13.765 /_ -120.1   0.99744
   -  3       7.9478 /_   89.9   0.99753    13.800        3-1     13.766 /_  119.9   0.99751
6029  1        7.945 /_  -30.2   0.99719    13.800        1-2      13.76 /_   -0.1   0.99708
   -  2       7.9453 /_ -150.1   0.99722    13.800        2-3     13.764 /_ -120.1   0.99736
   -  3       7.9472 /_   89.9   0.99746    13.800        3-1     13.765 /_  119.9   0.99743
6028  1       7.9441 /_  -30.2   0.99707    13.800        1-2     13.758 /_   -0.1   0.99695
   -  2       7.9444 /_ -150.1   0.99711    13.800        2-3     13.762 /_ -120.1   0.99725
   -  3       7.9463 /_   89.9   0.99735    13.800        3-1     13.763 /_  119.9   0.99732
6027  1       7.9434 /_  -30.2   0.99699    13.800        1-2     13.757 /_   -0.1   0.99688
   -  2       7.9439 /_ -150.1   0.99704    13.800        2-3     13.761 /_ -120.1   0.99718
   -  3       7.9457 /_   89.9   0.99728    13.800        3-1     13.762 /_  119.8   0.99725
6026  1       7.9431 /_  -30.2   0.99694    13.800        1-2     13.756 /_   -0.1   0.99683
   -  2       7.9435 /_ -150.1     0.997    13.800        2-3     13.761 /_ -120.1   0.99714
   -  3       7.9454 /_   89.9   0.99723    13.800        3-1     13.761 /_  119.8    0.9972
6048  1       7.9423 /_  -30.2   0.99684    13.800        1-2     13.755 /_   -0.1   0.99673
   -  2       7.9428 /_ -150.1    0.9969    13.800        2-3     13.759 /_ -120.1   0.99705
   -  3       7.9446 /_   89.9   0.99714    13.800        3-1      13.76 /_  119.8   0.99711
4197  1       7.9423 /_  -30.2   0.99684    13.800        1-2     13.755 /_   -0.1   0.99673
   -  2       7.9428 /_ -150.1    0.9969    13.800        2-3     13.759 /_ -120.1   0.99705
   -  3       7.9446 /_   89.9   0.99714    13.800        3-1      13.76 /_  119.8   0.99711
6057  1       7.9396 /_  -30.2   0.99651    13.800        1-2      13.75 /_   -0.1    0.9964
   -  2       7.9403 /_ -150.1    0.9966    13.800        2-3     13.755 /_ -120.1   0.99676
   -  3       7.9423 /_   89.9   0.99684    13.800        3-1     13.756 /_  119.8    0.9968
6056  1       7.9384 /_  -30.2   0.99636    13.800        1-2     13.748 /_   -0.1   0.99626
   -  2       7.9393 /_ -150.1   0.99647    13.800        2-3     13.753 /_ -120.1   0.99663
   -  3       7.9413 /_   89.9   0.99671    13.800        3-1     13.754 /_  119.8   0.99666
6055  1       7.9369 /_  -30.2   0.99617    13.800        1-2     13.746 /_   -0.1   0.99607
   -  2        7.938 /_ -150.1    0.9963    13.800        2-3     13.751 /_ -120.1   0.99646
   -  3       7.9399 /_   89.9   0.99655    13.800        3-1     13.752 /_  119.8   0.99649
6054  1       7.9357 /_  -30.2   0.99602    13.800        1-2     13.744 /_   -0.1   0.99592
   -  2       7.9368 /_ -150.1   0.99616    13.800        2-3     13.749 /_ -120.1   0.99633
   -  3       7.9388 /_   89.9   0.99641    13.800        3-1      13.75 /_  119.8   0.99634
6053  1       7.9345 /_  -30.2   0.99587    13.800        1-2     13.742 /_   -0.1   0.99577
   -  2       7.9357 /_ -150.1   0.99602    13.800        2-3     13.747 /_ -120.1   0.99619
   -  3       7.9377 /_   89.9   0.99627    13.800        3-1     13.748 /_  119.8    0.9962
6052  1       7.9333 /_  -30.2   0.99571    13.800        1-2      13.74 /_   -0.1   0.99562
   -  2       7.9346 /_ -150.1   0.99588    13.800        2-3     13.746 /_ -120.1   0.99606
   -  3       7.9367 /_   89.9   0.99614    13.800        3-1     13.746 /_  119.8   0.99606
6051  1       7.9321 /_  -30.2   0.99556    13.800        1-2     13.737 /_   -0.1   0.99547
   -  2       7.9335 /_ -150.1   0.99574    13.800        2-3     13.744 /_ -120.1   0.99592
   -  3       7.9356 /_   89.9     0.996    13.800        3-1     13.744 /_  119.8   0.99591
6050  1       7.9308 /_  -30.2    0.9954    13.800        1-2     13.735 /_   -0.1   0.99531
   -  2       7.9323 /_ -150.1    0.9956    13.800        2-3     13.742 /_ -120.1   0.99578
   -  3       7.9344 /_   89.9   0.99586    13.800        3-1     13.742 /_  119.8   0.99576
6049  1       7.9292 /_  -30.2   0.99521    13.800        1-2     13.733 /_   -0.1   0.99512
   -  2        7.931 /_ -150.1   0.99542    13.800        2-3     13.739 /_ -120.1   0.99561
   -  3        7.933 /_   89.9   0.99568    13.800        3-1     13.739 /_  119.8   0.99558
6062  1       7.9279 /_  -30.2   0.99504    13.800        1-2      13.73 /_   -0.1   0.99496
   -  2       7.9298 /_ -150.1   0.99528    13.800        2-3     13.737 /_ -120.1   0.99547
   -  3       7.9319 /_   89.9   0.99554    13.800        3-1     13.737 /_  119.8   0.99543
6061  1       7.9268 /_  -30.2    0.9949    13.800        1-2     13.728 /_   -0.1   0.99482
   -  2       7.9287 /_ -150.1   0.99514    13.800        2-3     13.736 /_ -120.1   0.99534
   -  3       7.9308 /_   89.9   0.99541    13.800        3-1     13.735 /_  119.8   0.99529
6060  1       7.9255 /_  -30.2   0.99473    13.800        1-2     13.726 /_   -0.1   0.99465
   -  2       7.9275 /_ -150.1   0.99499    13.800        2-3     13.734 /_ -120.1   0.99519
   -  3       7.9297 /_   89.9   0.99526    13.800        3-1     13.733 /_  119.8   0.99514
6059  1       7.9245 /_  -30.2   0.99461    13.800        1-2     13.725 /_   -0.1   0.99454
   -  2       7.9267 /_ -150.1   0.99488    13.800        2-3     13.732 /_ -120.1   0.99509
   -  3       7.9288 /_   89.9   0.99516    13.800        3-1     13.731 /_  119.8   0.99503
6058  1       7.9233 /_  -30.2   0.99446    13.800        1-2     13.723 /_   -0.1   0.99439
   -  2       7.9256 /_ -150.1   0.99474    13.800        2-3      13.73 /_ -120.1   0.99495
   -  3       7.9277 /_   89.9   0.99502    13.800        3-1     13.729 /_  119.8   0.99488
5167  1       7.9227 /_  -30.2   0.99439    13.800        1-2     13.722 /_   -0.1   0.99432
   -  2       7.9251 /_ -150.1   0.99468    13.800        2-3     13.729 /_ -120.1   0.99489
   -  3       7.9273 /_   89.9   0.99496    13.800        3-1     13.729 /_  119.8   0.99482
5071  1       7.9204 /_  -30.2    0.9941    13.800        1-2     13.718 /_   -0.1   0.99402
   -  2       7.9229 /_ -150.1   0.99441    13.800        2-3     13.726 /_ -120.1   0.99463
   -  3       7.9251 /_   89.9   0.99469    13.800        3-1     13.725 /_  119.8   0.99455
5166  1       7.9227 /_  -30.2   0.99439    13.800        1-2     13.722 /_   -0.1   0.99432
   -  2       7.9251 /_ -150.1   0.99468    13.800        2-3     13.729 /_ -120.1   0.99489
   -  3       7.9273 /_   89.9   0.99496    13.800        3-1     13.729 /_  119.8   0.99482
4284  1       7.9193 /_  -30.2   0.99396    13.800        1-2     13.716 /_   -0.1   0.99389
   -  2       7.9219 /_ -150.1   0.99429    13.800        2-3     13.724 /_ -120.1   0.99451
   -  3       7.9242 /_   89.9   0.99457    13.800        3-1     13.723 /_  119.8   0.99443
4285  1       7.9182 /_  -30.2   0.99382    13.800        1-2     13.714 /_   -0.2   0.99374
   -  2       7.9209 /_ -150.1   0.99416    13.800        2-3     13.722 /_ -120.1   0.99437
   -  3       7.9231 /_   89.9   0.99444    13.800        3-1     13.721 /_  119.8   0.99429
4286  1       7.9141 /_  -30.2    0.9933    13.800        1-2     13.707 /_   -0.2   0.99323
   -  2       7.9171 /_ -150.1   0.99368    13.800        2-3     13.716 /_ -120.1   0.99391
   -  3       7.9194 /_   89.8   0.99397    13.800        3-1     13.715 /_  119.8   0.99382
5165  1       7.9115 /_  -30.2   0.99298    13.800        1-2     13.702 /_   -0.2    0.9929
   -  2       7.9147 /_ -150.1   0.99338    13.800        2-3     13.712 /_ -120.1   0.99362
   -  3        7.917 /_   89.8   0.99367    13.800        3-1     13.711 /_  119.8   0.99352
5171  1       7.9078 /_  -30.2   0.99251    13.800        1-2     13.696 /_   -0.2   0.99243
   -  2       7.9113 /_ -150.2   0.99295    13.800        2-3     13.706 /_ -120.2    0.9932
   -  3       7.9137 /_   89.8   0.99325    13.800        3-1     13.705 /_  119.8   0.99308
5173  1       7.9055 /_  -30.2   0.99223    13.800        1-2     13.692 /_   -0.2   0.99215
   -  2       7.9092 /_ -150.2   0.99269    13.800        2-3     13.703 /_ -120.2   0.99294
   -  3       7.9116 /_   89.8   0.99299    13.800        3-1     13.701 /_  119.8   0.99282
5172  1       7.9012 /_  -30.2   0.99169    13.800        1-2     13.684 /_   -0.2   0.99161
   -  2       7.9053 /_ -150.2    0.9922    13.800        2-3     13.696 /_ -120.2   0.99246
   -  3       7.9077 /_   89.8   0.99251    13.800        3-1     13.694 /_  119.8   0.99233
5170  1       7.8967 /_  -30.2   0.99112    13.800        1-2     13.676 /_   -0.2   0.99104
   -  2       7.9011 /_ -150.2   0.99168    13.800        2-3     13.689 /_ -120.2   0.99195
   -  3       7.9036 /_   89.8   0.99199    13.800        3-1     13.687 /_  119.8    0.9918
5174  1        7.893 /_  -30.3   0.99066    13.800        1-2      13.67 /_   -0.2   0.99057
   -  2       7.8977 /_ -150.2   0.99125    13.800        2-3     13.683 /_ -120.2   0.99153
   -  3       7.9003 /_   89.8   0.99157    13.800        3-1     13.681 /_  119.8   0.99137
5175  1       7.8906 /_  -30.3   0.99035    13.800        1-2     13.666 /_   -0.2   0.99027
   -  2       7.8955 /_ -150.2   0.99097    13.800        2-3     13.679 /_ -120.2   0.99126
   -  3       7.8981 /_   89.8   0.99129    13.800        3-1     13.677 /_  119.7   0.99109
5181  1       7.8871 /_  -30.3   0.98992    13.800        1-2      13.66 /_   -0.2   0.98983
   -  2       7.8923 /_ -150.2   0.99057    13.800        2-3     13.674 /_ -120.2   0.99086
   -  3       7.8949 /_   89.8    0.9909    13.800        3-1     13.672 /_  119.7   0.99069
5072  1       7.8833 /_  -30.3   0.98944    13.800        1-2     13.653 /_   -0.2   0.98936
   -  2       7.8888 /_ -150.2   0.99013    13.800        2-3     13.668 /_ -120.2   0.99044
   -  3       7.8915 /_   89.8   0.99047    13.800        3-1     13.665 /_  119.7   0.99024
5180  1       7.8871 /_  -30.3   0.98992    13.800        1-2      13.66 /_   -0.2   0.98983
   -  2       7.8923 /_ -150.2   0.99057    13.800        2-3     13.674 /_ -120.2   0.99086
   -  3       7.8949 /_   89.8    0.9909    13.800        3-1     13.672 /_  119.7   0.99069
5177  1       7.8797 /_  -30.3   0.98899    13.800        1-2     13.647 /_   -0.2   0.98891
   -  2       7.8855 /_ -150.2   0.98972    13.800        2-3     13.663 /_ -120.2   0.99004
   -  3       7.8883 /_   89.8   0.99006    13.800        3-1      13.66 /_  119.7   0.98982
5176  1        7.876 /_  -30.3   0.98853    13.800        1-2     13.641 /_   -0.2   0.98845
   -  2       7.8822 /_ -150.2    0.9893    13.800        2-3     13.657 /_ -120.2   0.98963
   -  3        7.885 /_   89.8   0.98965    13.800        3-1     13.654 /_  119.7    0.9894
5168  1       7.8871 /_  -30.3   0.98992    13.800        1-2      13.66 /_   -0.2   0.98983
   -  2       7.8923 /_ -150.2   0.99057    13.800        2-3     13.674 /_ -120.2   0.99086
   -  3       7.8949 /_   89.8    0.9909    13.800        3-1     13.672 /_  119.7   0.99069
5169  1       7.8871 /_  -30.3   0.98992    13.800        1-2      13.66 /_   -0.2   0.98983
   -  2       7.8923 /_ -150.2   0.99057    13.800        2-3     13.674 /_ -120.2   0.99086
   -  3       7.8949 /_   89.8    0.9909    13.800        3-1     13.672 /_  119.7   0.99069
5179  1       7.8728 /_  -30.3   0.98812    13.800        1-2     13.635 /_   -0.2   0.98805
   -  2       7.8793 /_ -150.2   0.98894    13.800        2-3     13.652 /_ -120.2   0.98927
   -  3       7.8821 /_   89.8   0.98929    13.800        3-1     13.649 /_  119.7   0.98902
5178  1       7.8717 /_  -30.3   0.98798    13.800        1-2     13.633 /_   -0.2   0.98792
   -  2       7.8783 /_ -150.2   0.98881    13.800        2-3      13.65 /_ -120.2   0.98915
   -  3       7.8811 /_   89.8   0.98916    13.800        3-1     13.647 /_  119.7   0.98889
5254  1       7.8638 /_  -30.3     0.987    13.800        1-2      13.62 /_   -0.2   0.98695
   -  2       7.8711 /_ -150.2   0.98791    13.800        2-3     13.638 /_ -120.2   0.98828
   -  3       7.8741 /_   89.8   0.98828    13.800        3-1     13.634 /_  119.7   0.98797
5256  1       7.8591 /_  -30.3   0.98641    13.800        1-2     13.612 /_   -0.2   0.98637
   -  2       7.8669 /_ -150.2   0.98738    13.800        2-3     13.631 /_ -120.2   0.98776
   -  3       7.8699 /_   89.8   0.98776    13.800        3-1     13.626 /_  119.7   0.98742
5255  1       7.8557 /_  -30.3   0.98598    13.800        1-2     13.606 /_   -0.2   0.98595
   -  2       7.8638 /_ -150.2   0.98699    13.800        2-3     13.626 /_ -120.2   0.98738
   -  3       7.8669 /_   89.8   0.98738    13.800        3-1     13.621 /_  119.7   0.98702
5102  1       7.8505 /_  -30.3   0.98533    13.800        1-2     13.597 /_   -0.2   0.98531
   -  2       7.8591 /_ -150.2    0.9864    13.800        2-3     13.618 /_ -120.2   0.98681
   -  3       7.8623 /_   89.8    0.9868    13.800        3-1     13.613 /_  119.7   0.98642
5257  1       7.8557 /_  -30.3   0.98598    13.800        1-2     13.606 /_   -0.2   0.98595
   -  2       7.8638 /_ -150.2   0.98699    13.800        2-3     13.626 /_ -120.2   0.98738
   -  3       7.8669 /_   89.8   0.98738    13.800        3-1     13.621 /_  119.7   0.98702
5101  1       7.8557 /_  -30.3   0.98598    13.800        1-2     13.606 /_   -0.2   0.98595
   -  2       7.8638 /_ -150.2   0.98699    13.800        2-3     13.626 /_ -120.2   0.98738
...
