RedeDSS/Rede_CAI_teste_sem_trafos_Curr_Elem.Txt

CIRCUIT ELEMENT CURRENTS

(Currents into element from indicated bus)

Power Delivery Elements

  Bus Phase    Magnitude, A     Angle      (Real)   +j  (Imag)

ELEMENT = "Vsource.SOURCE"
3326     1            89.27 /_  156.8 =    -82.074 +j    35.114
3326     2            90.81 /_   36.0 =     73.507 +j    53.322
3326     3            88.85 /_  -84.5 =     8.5673 +j   -88.436
------------
3326     0            89.27 /_  -23.2 =     82.074 +j   -35.114
3326     0            90.81 /_ -144.0 =    -73.507 +j   -53.322
3326     0            88.85 /_   95.5 =    -8.5673 +j    88.436

ELEMENT = "Line.12465653_ID5719"
2645     1           19.449 /_  123.2 =    -10.644 +j    16.278
2645     2           20.625 /_    3.3 =     20.591 +j    1.1911
2645     3           19.698 /_ -116.6 =    -8.8343 +j   -17.606
------------
3323     1           19.449 /_  -56.8 =     10.644 +j   -16.278
3323     2           20.625 /_ -176.7 =    -20.591 +j   -1.1911
3323     3           19.698 /_   63.4 =     8.8343 +j    17.606

ELEMENT = "Line.12465646_ID4662"
2221     1           71.083 /_  127.4 =    -43.174 +j     56.47
2221     2           74.652 /_    7.3 =     74.055 +j    9.4211
2221     3           73.937 /_ -112.7 =    -28.515 +j   -68.217
------------
3323     1           71.083 /_  -52.6 =     43.174 +j    -56.47
3323     2           74.652 /_ -172.7 =    -74.055 +j   -9.4211
3323     3           73.937 /_   67.3 =     28.515 +j    68.217

ELEMENT = "Line.361598283_ID6421"
3312     1      1.7614E-007 /_  -46.2 =  1.2193E-007 +j -1.2711E-007
3312     2       1.721E-007 /_  -46.3 =  1.1884E-007 +j -1.2448E-007
3312     3      1.7782E-007 /_  -45.6 =  1.2433E-007 +j -1.2713E-007
------------
3324     1      1.9362E-007 /_  133.8 =  -1.3404E-007 +j 1.3972E-007
3324     2       1.896E-007 /_  133.7 =  -1.3093E-007 +j 1.3713E-007
3324     3      1.9548E-007 /_  134.3 =  -1.3656E-007 +j 1.3987E-007

ELEMENT = "Line.363434473_ID6207"
3324     1           36.494 /_  -45.1 =     25.741 +j   -25.869
3324     2           36.919 /_ -165.3 =    -35.711 +j    -9.363
3324     3           38.948 /_   74.1 =       10.7 +j    37.449
------------
927      1           36.494 /_  134.9 =    -25.741 +j    25.869
927      2           36.919 /_   14.7 =     35.711 +j     9.363
927      3           38.948 /_ -105.9 =      -10.7 +j   -37.449

ELEMENT = "Line.363434188_ID5983"
1972     1           30.012 /_  117.5 =    -13.837 +j    26.632
1972     2           32.499 /_   -2.2 =     32.475 +j   -1.2456
1972     3           30.281 /_ -122.5 =    -16.275 +j   -25.536
------------
3324     1           30.012 /_  -62.5 =     13.837 +j   -26.632
3324     2           32.499 /_  177.8 =    -32.475 +j    1.2456
3324     3           30.281 /_   57.5 =     16.275 +j    25.536

ELEMENT = "Line.361598269_ID5059"
3324     1            76.68 /_  -53.3 =     45.808 +j   -61.493
3324     2           85.024 /_ -173.6 =    -84.493 +j   -9.4828
3324     3           81.691 /_   66.5 =      32.55 +j    74.927
------------
13       1            76.68 /_  126.7 =    -45.808 +j    61.493
13       2           85.024 /_    6.4 =     84.493 +j    9.4828
13       3           81.691 /_ -113.5 =     -32.55 +j   -74.927

ELEMENT = "Line.361598276_ID4187"
436      1           108.22 /_  124.7 =    -61.655 +j    88.941
436      2           116.75 /_    4.7 =     116.36 +j    9.4932
436      3           114.75 /_ -115.3 =    -49.067 +j   -103.73
------------
3324     1           108.22 /_  -55.3 =     61.655 +j   -88.941
3324     2           116.75 /_ -175.3 =    -116.36 +j   -9.4932
3324     3           114.75 /_   64.7 =     49.067 +j    103.73

ELEMENT = "Line.363434459_ID3365"
3324     1           135.64 /_  -53.5 =     80.721 +j   -109.01
3324     2           134.52 /_ -173.4 =    -133.64 +j   -15.365
3324     3           136.52 /_   66.5 =     54.373 +j    125.22
------------
1100     1           135.64 /_  126.5 =    -80.721 +j    109.01
1100     2           134.52 /_    6.6 =     133.64 +j    15.365
1100     3           136.52 /_ -113.5 =    -54.373 +j   -125.22

ELEMENT = "Line.12465652_ID6367"
3247     1      6.9686E-008 /_  -76.5 =  1.6305E-008 +j -6.7752E-008
3247     2      5.7852E-008 /_  -79.5 =  1.0572E-008 +j -5.6878E-008
3247     3      4.4343E-008 /_  -95.7 =  -4.4238E-009 +j -4.4121E-008
------------
3325     1       7.155E-008 /_  103.5 =  -1.668E-008 +j 6.9578E-008
3325     2      5.9618E-008 /_  100.4 =  -1.0812E-008 +j 5.863E-008
3325     3      4.6048E-008 /_   84.9 =  4.0745E-009 +j 4.5868E-008

ELEMENT = "Line.12465654_ID5411"
2922     1           75.252 /_  124.5 =    -42.639 +j    62.007
2922     2           76.632 /_    4.5 =     76.396 +j     6.011
2922     3            77.44 /_ -115.5 =    -33.378 +j   -69.877
------------
3325     1           75.252 /_  -55.5 =     42.639 +j   -62.007
3325     2           76.632 /_ -175.5 =    -76.396 +j    -6.011
3325     3            77.44 /_   64.5 =     33.378 +j    69.877

ELEMENT = "Line.12465633_ID5720"
2648     1           19.449 /_  123.2 =    -10.644 +j    16.278
2648     2           20.625 /_    3.3 =     20.591 +j    1.1911
2648     3           19.698 /_ -116.6 =    -8.8343 +j   -17.606
------------
2645     1           19.449 /_  -56.8 =     10.644 +j   -16.278
2645     2           20.625 /_ -176.7 =    -20.591 +j   -1.1911
2645     3           19.698 /_   63.4 =     8.8343 +j    17.606

ELEMENT = "Line.12465631_ID4663"
2223     1           71.083 /_  127.4 =    -43.174 +j     56.47
2223     2           74.652 /_    7.3 =     74.055 +j    9.4211
2223     3           73.937 /_ -112.7 =    -28.515 +j   -68.217
------------
2221     1           71.083 /_  -52.6 =     43.174 +j    -56.47
2221     2           74.652 /_ -172.7 =    -74.055 +j   -9.4211
2221     3           73.937 /_   67.3 =     28.515 +j    68.217

ELEMENT = "Line.12465658_ID6208"
927      1           36.494 /_  -45.1 =     25.741 +j   -25.869
927      2           36.919 /_ -165.3 =    -35.711 +j    -9.363
927      3           38.948 /_   74.1 =       10.7 +j    37.449
------------
928      1           36.494 /_  134.9 =    -25.741 +j    25.869
928      2           36.919 /_   14.7 =     35.711 +j     9.363
928      3           38.948 /_ -105.9 =      -10.7 +j   -37.449

ELEMENT = "Line.12465648_ID5984"
1972     1           30.012 /_  -62.5 =     13.837 +j   -26.632
1972     2           32.499 /_  177.8 =    -32.475 +j    1.2456
1972     3           30.281 /_   57.5 =     16.275 +j    25.536
------------
1973     1           30.012 /_  117.5 =    -13.837 +j    26.632
1973     2           32.499 /_   -2.2 =     32.475 +j   -1.2456
1973     3           30.281 /_ -122.5 =    -16.275 +j   -25.536

ELEMENT = "Line.12465656_ID3366"
1100     1           135.64 /_  -53.5 =     80.721 +j   -109.01
1100     2           134.52 /_ -173.4 =    -133.64 +j   -15.365
1100     3           136.52 /_   66.5 =     54.373 +j    125.22
------------
1101     1           135.64 /_  126.5 =    -80.721 +j    109.01
1101     2           134.52 /_    6.6 =     133.64 +j    15.365
1101     3           136.52 /_ -113.5 =    -54.373 +j   -125.22

ELEMENT = "Line.12465627_ID6368"
3247     1       6.973E-008 /_  103.5 =  -1.6324E-008 +j 6.7792E-008
3247     2      5.8156E-008 /_  100.5 =  -1.0621E-008 +j 5.7178E-008
3247     3      4.4263E-008 /_   83.8 =  4.773E-009 +j 4.4005E-008
------------
3248     1      6.7806E-008 /_  -76.4 =  1.5956E-008 +j -6.5902E-008
3248     2      5.6148E-008 /_  -79.5 =  1.0194E-008 +j -5.5215E-008
3248     3       4.251E-008 /_  -96.9 =  -5.1223E-009 +j -4.2201E-008

ELEMENT = "Line.12465632_ID5412"
2922     1           75.252 /_  -55.5 =     42.639 +j   -62.007
2922     2           76.632 /_ -175.5 =    -76.396 +j    -6.011
2922     3            77.44 /_   64.5 =     33.378 +j    69.877
------------
2924     1           75.252 /_  124.5 =    -42.639 +j    62.007
2924     2           76.632 /_    4.5 =     76.396 +j     6.011
2924     3            77.44 /_ -115.5 =    -33.378 +j   -69.877

ELEMENT = "Line.12465599_ID5721"
2647     1           19.449 /_  123.2 =    -10.644 +j    16.278
2647     2           20.625 /_    3.3 =     20.591 +j    1.1911
2647     3           19.698 /_ -116.6 =    -8.8343 +j   -17.606
------------
2648     1           19.449 /_  -56.8 =     10.644 +j   -16.278
2648     2           20.625 /_ -176.7 =    -20.591 +j   -1.1911
2648     3           19.698 /_   63.4 =     8.8343 +j    17.606

ELEMENT = "Line.12465600_ID4664"
2222     1           71.083 /_  127.4 =    -43.174 +j     56.47
2222     2           74.652 /_    7.3 =     74.055 +j    9.4211
2222     3           73.937 /_ -112.7 =    -28.515 +j   -68.217
------------
2223     1           71.083 /_  -52.6 =     43.174 +j    -56.47
2223     2           74.652 /_ -172.7 =    -74.055 +j   -9.4211
2223     3           73.937 /_   67.3 =     28.515 +j    68.217

ELEMENT = "Line.363435145_ID6422"
3311     1      1.2702E-007 /_  -46.1 =  8.8072E-008 +j -9.1532E-008
3311     2      1.2324E-007 /_  -46.3 =  8.5079E-008 +j -8.9168E-008
3311     3      1.2891E-007 /_  -45.4 =  9.0513E-008 +j -9.1793E-008
------------
3312     1      1.7606E-007 /_  133.8 =  -1.2195E-007 +j 1.2698E-007
3312     2      1.7221E-007 /_  133.7 =  -1.1901E-007 +j 1.2446E-007
3312     3      1.7793E-007 /_  134.4 =  -1.2445E-007 +j 1.2717E-007

ELEMENT = "Line.12465658_ID6209"
929      1           36.494 /_  134.9 =    -25.741 +j    25.869
929      2           36.919 /_   14.7 =     35.711 +j     9.363
929      3           38.948 /_ -105.9 =      -10.7 +j   -37.449
------------
928      1           36.494 /_  -45.1 =     25.741 +j   -25.869
928      2           36.919 /_ -165.3 =    -35.711 +j    -9.363
928      3           38.948 /_   74.1 =       10.7 +j    37.449

ELEMENT = "Line.12465628_ID5985"
1973     1           30.012 /_  -62.5 =     13.837 +j   -26.632
1973     2           32.499 /_  177.8 =    -32.475 +j    1.2456
1973     3           30.281 /_   57.5 =     16.275 +j    25.536
------------
1975     1           30.012 /_  117.5 =    -13.837 +j    26.632
1975     2           32.499 /_   -2.2 =     32.475 +j   -1.2456
1975     3           30.281 /_ -122.5 =    -16.275 +j   -25.536

ELEMENT = "Line.363435121_ID5060"
13       1            76.68 /_  -53.3 =     45.808 +j   -61.493
13       2           85.024 /_ -173.6 =    -84.493 +j   -9.4828
13       3           81.691 /_   66.5 =      32.55 +j    74.927
------------
12       1            76.68 /_  126.7 =    -45.808 +j    61.493
12       2           85.024 /_    6.4 =     84.493 +j    9.4828
12       3           81.691 /_ -113.5 =     -32.55 +j   -74.927

ELEMENT = "Line.363435071_ID4188"
436      1           108.22 /_  -55.3 =     61.655 +j   -88.941
436      2           116.75 /_ -175.3 =    -116.36 +j   -9.4932
436      3           114.75 /_   64.7 =     49.067 +j    103.73
------------
434      1           108.22 /_  124.7 =    -61.655 +j    88.941
434      2           116.75 /_    4.7 =     116.36 +j    9.4932
434      3           114.75 /_ -115.3 =    -49.067 +j   -103.73

ELEMENT = "Line.12465630_ID3367"
1101     1           135.64 /_  -53.5 =     80.721 +j   -109.01
1101     2           134.52 /_ -173.4 =    -133.64 +j   -15.365
1101     3           136.52 /_   66.5 =     54.373 +j    125.22
------------
1103     1           135.64 /_  126.5 =    -80.721 +j    109.01
1103     2           134.52 /_    6.6 =     133.64 +j    15.365
1103     3           136.52 /_ -113.5 =    -54.373 +j   -125.22

ELEMENT = "Line.12465594_ID6369"
3248     1       6.822E-008 /_  103.6 =  -1.604E-008 +j 6.6308E-008
3248     2      5.6011E-008 /_  100.5 =  -1.0245E-008 +j 5.5066E-008
3248     3      4.2309E-008 /_   83.4 =  4.8894E-009 +j 4.2026E-008
------------
3249     1      6.6359E-008 /_  -76.4 =  1.5607E-008 +j -6.4498E-008
3249     2      5.4235E-008 /_  -79.7 =  9.7316E-009 +j -5.3355E-008
3249     3      4.0692E-008 /_  -97.6 =  -5.3551E-009 +j -4.0338E-008

ELEMENT = "Line.12465603_ID5413"
2923     1           75.252 /_  124.5 =    -42.639 +j    62.007
2923     2           76.632 /_    4.5 =     76.396 +j     6.011
2923     3            77.44 /_ -115.5 =    -33.378 +j   -69.877
------------
2924     1           75.252 /_  -55.5 =     42.639 +j   -62.007
2924     2           76.632 /_ -175.5 =    -76.396 +j    -6.011
2924     3            77.44 /_   64.5 =     33.378 +j    69.877

ELEMENT = "Line.12465599_ID5722"
2646     1           19.449 /_  123.2 =    -10.644 +j    16.278
2646     2           20.625 /_    3.3 =     20.591 +j    1.1911
2646     3           19.698 /_ -116.6 =    -8.8343 +j   -17.606
------------
2647     1           19.449 /_  -56.8 =     10.644 +j   -16.278
2647     2           20.625 /_ -176.7 =    -20.591 +j   -1.1911
2647     3           19.698 /_   63.4 =     8.8343 +j    17.606

ELEMENT = "Line.12465600_ID4665"
2227     1           71.083 /_  127.4 =    -43.174 +j     56.47
2227     2           74.652 /_    7.3 =     74.055 +j    9.4211
2227     3           73.937 /_ -112.7 =    -28.515 +j   -68.217
------------
2222     1           71.083 /_  -52.6 =     43.174 +j    -56.47
2222     2           74.652 /_ -172.7 =    -74.055 +j   -9.4211
2222     3           73.937 /_   67.3 =     28.515 +j    68.217

ELEMENT = "Line.12465629_ID6210"
931      1           36.494 /_  134.9 =    -25.741 +j    25.869
931      2           36.919 /_   14.7 =     35.711 +j     9.363
931      3           38.948 /_ -105.9 =      -10.7 +j   -37.449
------------
929      1           36.494 /_  -45.1 =     25.741 +j   -25.869
929      2           36.919 /_ -165.3 =    -35.711 +j    -9.363
929      3           38.948 /_   74.1 =       10.7 +j    37.449

ELEMENT = "Line.12465596_ID5986"
1975     1           30.012 /_  -62.5 =     13.837 +j   -26.632
1975     2           32.499 /_  177.8 =    -32.475 +j    1.2456
1975     3           30.281 /_   57.5 =     16.275 +j    25.536
------------
1974     1           30.012 /_  117.5 =    -13.837 +j    26.632
1974     2           32.499 /_   -2.2 =     32.475 +j   -1.2456
1974     3           30.281 /_ -122.5 =    -16.275 +j   -25.536

ELEMENT = "Line.12465602_ID3368"
1102     1           135.64 /_  126.5 =    -80.721 +j    109.01
1102     2           134.52 /_    6.6 =     133.64 +j    15.365
1102     3           136.52 /_ -113.5 =    -54.373 +j   -125.22
------------
1103     1           135.64 /_  -53.5 =     80.721 +j   -109.01
1103     2           134.52 /_ -173.4 =    -133.64 +j   -15.365
1103     3           136.52 /_   66.5 =     54.373 +j    125.22

ELEMENT = "Line.12465586_ID6370"
3249     1      6.7087E-008 /_  102.0 =  -1.3912E-008 +j 6.5629E-008
3249     2      5.8414E-008 /_  102.2 =  -1.2311E-008 +j 5.7102E-008
3249     3       3.916E-008 /_   87.3 =  1.8626E-009 +j 3.9116E-008
------------
3269     1      6.8237E-008 /_  -78.4 =  1.3679E-008 +j -6.6851E-008
3269     2      5.4979E-008 /_  -79.9 =  9.6043E-009 +j -5.4133E-008
3269     3       3.916E-008 /_  -92.7 =  -1.8626E-009 +j -3.9116E-008

ELEMENT = "Line.12465603_ID5414"
2926     1           75.252 /_  124.5 =    -42.639 +j    62.007
2926     2           76.632 /_    4.5 =     76.396 +j     6.011
2926     3            77.44 /_ -115.5 =    -33.378 +j   -69.877
------------
2923     1           75.252 /_  -55.5 =     42.639 +j   -62.007
2923     2           76.632 /_ -175.5 =    -76.396 +j    -6.011
2923     3            77.44 /_   64.5 =     33.378 +j    69.877

ELEMENT = "Line.12465599_ID5723"
2646     1           19.449 /_  -56.8 =     10.644 +j   -16.278
2646     2           20.625 /_ -176.7 =    -20.591 +j   -1.1911
2646     3           19.698 /_   63.4 =     8.8343 +j    17.606
------------
2649     1           19.449 /_  123.2 =    -10.644 +j    16.278
2649     2           20.625 /_    3.3 =     20.591 +j    1.1911
2649     3           19.698 /_ -116.6 =    -8.8343 +j   -17.606

ELEMENT = "Line.12465589_ID4666"
2226     1           71.083 /_  127.4 =    -43.174 +j     56.47
2226     2           74.652 /_    7.3 =     74.055 +j    9.4211
2226     3           73.937 /_ -112.7 =    -28.515 +j   -68.217
------------
2227     1           71.083 /_  -52.6 =     43.174 +j    -56.47
2227     2           74.652 /_ -172.7 =    -74.055 +j   -9.4211
2227     3           73.937 /_   67.3 =     28.515 +j    68.217

ELEMENT = "Line.363435311_ID6423"
3309     1      7.7963E-008 /_  -46.1 =  5.4071E-008 +j -5.6166E-008
3309     2      7.4148E-008 /_  -46.4 =  5.1089E-008 +j -5.3739E-008
3309     3      7.9993E-008 /_  -44.9 =  5.6636E-008 +j -5.6491E-008
------------
3311     1        1.27E-007 /_  133.8 =  -8.7947E-008 +j 9.1614E-008
3311     2      1.2311E-007 /_  133.7 =  -8.5024E-008 +j 8.9037E-008
3311     3      1.2907E-007 /_  134.6 =  -9.0688E-008 +j 9.1837E-008

ELEMENT = "Line.12465598_ID6211"
930      1           36.494 /_  134.9 =    -25.741 +j    25.869
930      2           36.919 /_   14.7 =     35.711 +j     9.363
930      3           38.948 /_ -105.9 =      -10.7 +j   -37.449
------------
931      1           36.494 /_  -45.1 =     25.741 +j   -25.869
931      2           36.919 /_ -165.3 =    -35.711 +j    -9.363
931      3           38.948 /_   74.1 =       10.7 +j    37.449

ELEMENT = "Line.12465596_ID5987"
1974     1           30.012 /_  -62.5 =     13.837 +j   -26.632
1974     2           32.499 /_  177.8 =    -32.475 +j    1.2456
1974     3           30.281 /_   57.5 =     16.275 +j    25.536
------------
1978     1           30.012 /_  117.5 =    -13.837 +j    26.632
1978     2           32.499 /_   -2.2 =     32.475 +j   -1.2456
1978     3           30.281 /_ -122.5 =    -16.275 +j   -25.536

ELEMENT = "Line.363435153_ID5061"
12       1            76.68 /_  -53.3 =     45.808 +j   -61.493
12       2           85.024 /_ -173.6 =    -84.493 +j   -9.4828
12       3           81.691 /_   66.5 =      32.55 +j    74.927
------------
9        1            76.68 /_  126.7 =    -45.808 +j    61.493
9        2           85.024 /_    6.4 =     84.493 +j    9.4828
9        3           81.691 /_ -113.5 =     -32.55 +j   -74.927

ELEMENT = "Line.363435303_ID4189"
432      1           108.22 /_  124.7 =    -61.655 +j    88.941
432      2           116.75 /_    4.7 =     116.36 +j    9.4932
432      3           114.75 /_ -115.3 =    -49.067 +j   -103.73
------------
434      1           108.22 /_  -55.3 =     61.655 +j   -88.941
434      2           116.75 /_ -175.3 =    -116.36 +j   -9.4932
434      3           114.75 /_   64.7 =     49.067 +j    103.73

ELEMENT = "Line.12465602_ID3369"
1102     1           135.64 /_  -53.5 =     80.721 +j   -109.01
1102     2           134.52 /_ -173.4 =    -133.64 +j   -15.365
1102     3           136.52 /_   66.5 =     54.373 +j    125.22
------------
1106     1           135.64 /_  126.5 =    -80.721 +j    109.01
1106     2           134.52 /_    6.6 =     133.64 +j    15.365
1106     3           136.52 /_ -113.5 =    -54.373 +j   -125.22

ELEMENT = "Line.12465588_ID5415"
2925     1           75.252 /_  124.5 =    -42.639 +j    62.007
2925     2           76.632 /_    4.5 =     76.396 +j     6.011
2925     3            77.44 /_ -115.5 =    -33.378 +j   -69.877
------------
2926     1           75.252 /_  -55.5 =     42.639 +j   -62.007
2926     2           76.632 /_ -175.5 =    -76.396 +j    -6.011
2926     3            77.44 /_   64.5 =     33.378 +j    69.877

ELEMENT = "Line.12465584_ID5724"
2649     1           19.449 /_  -56.8 =     10.644 +j   -16.278
2649     2           20.625 /_ -176.7 =    -20.591 +j   -1.1911
2649     3           19.698 /_   63.4 =     8.8343 +j    17.606
------------
2835     1           19.449 /_  123.2 =    -10.644 +j    16.278
2835     2           20.625 /_    3.3 =     20.591 +j    1.1911
2835     3           19.698 /_ -116.6 =    -8.8343 +j   -17.606

ELEMENT = "Line.12465589_ID4667"
2225     1           71.083 /_  127.4 =    -43.174 +j     56.47
2225     2           74.652 /_    7.3 =     74.055 +j    9.4211
2225     3           73.937 /_ -112.7 =    -28.515 +j   -68.217
------------
2226     1           71.083 /_  -52.6 =     43.174 +j    -56.47
2226     2           74.652 /_ -172.7 =    -74.055 +j   -9.4211
2226     3           73.937 /_   67.3 =     28.515 +j    68.217

ELEMENT = "Line.12465598_ID6212"
930      1           36.494 /_  -45.1 =     25.741 +j   -25.869
930      2           36.919 /_ -165.3 =    -35.711 +j    -9.363
930      3           38.948 /_   74.1 =       10.7 +j    37.449
------------
934      1           36.494 /_  134.9 =    -25.741 +j    25.869
934      2           36.919 /_   14.7 =     35.711 +j     9.363
934      3           38.948 /_ -105.9 =      -10.7 +j   -37.449

ELEMENT = "Line.12465587_ID5988"
1977     1           30.012 /_  117.5 =    -13.837 +j    26.632
1977     2           32.499 /_   -2.2 =     32.475 +j   -1.2456
1977     3           30.281 /_ -122.5 =    -16.275 +j   -25.536
------------
1978     1           30.012 /_  -62.5 =     13.837 +j   -26.632
1978     2           32.499 /_  177.8 =    -32.475 +j    1.2456
1978     3           30.281 /_   57.5 =     16.275 +j    25.536

ELEMENT = "Line.12465590_ID3370"
1105     1           135.64 /_  126.5 =    -80.721 +j    109.01
1105     2           134.52 /_    6.6 =     133.64 +j    15.365
1105     3           136.52 /_ -113.5 =    -54.373 +j   -125.22
------------
1106     1           135.64 /_  -53.5 =     80.721 +j   -109.01
1106     2           134.52 /_ -173.4 =    -133.64 +j   -15.365
1106     3           136.52 /_   66.5 =     54.373 +j    125.22

ELEMENT = "Line.5675047_ID6371"
3267     1      7.1143E-008 /_  -80.8 =  1.1402E-008 +j -7.0223E-008
3267     2      5.9038E-008 /_  -78.6 =  1.162E-008 +j -5.7883E-008
3267     3      4.3826E-008 /_  -98.6 =  -6.5697E-009 +j -4.3331E-008
3267     4      6.9547E-011 /_  170.9 =  -6.8667E-011 +j 1.1028E-011
------------
3269     1      6.9803E-008 /_   98.6 =  -1.0494E-008 +j 6.9009E-008
3269     2      6.1484E-008 /_   98.2 =  -8.7334E-009 +j 6.086E-008
3269     3      4.4699E-008 /_   81.5 =  6.5752E-009 +j 4.4213E-008
3269     4      1.9738E-010 /_ -162.1 =  -1.8781E-010 +j -6.0709E-011

ELEMENT = "Line.12465638_ID5416"
2925     1           75.252 /_  -55.5 =     42.639 +j   -62.007
2925     2           76.632 /_ -175.5 =    -76.396 +j    -6.011
2925     3            77.44 /_   64.5 =     33.378 +j    69.877
------------
3029     1           75.252 /_  124.5 =    -42.639 +j    62.007
3029     2           76.632 /_    4.5 =     76.396 +j     6.011
3029     3            77.44 /_ -115.5 =    -33.378 +j   -69.877

ELEMENT = "Line.12465589_ID4668"
2224     1           71.083 /_  127.4 =    -43.174 +j     56.47
2224     2           74.652 /_    7.3 =     74.055 +j    9.4211
2224     3           73.937 /_ -112.7 =    -28.515 +j   -68.217
------------
2225     1           71.083 /_  -52.6 =     43.174 +j    -56.47
2225     2           74.652 /_ -172.7 =    -74.055 +j   -9.4211
2225     3           73.937 /_   67.3 =     28.515 +j    68.217

ELEMENT = "Line.363438455_ID6424"
3306     1       2.676E-009 /_  -42.6 =  1.9711E-009 +j -1.8099E-009
3306     2      1.2819E-009 /_  152.7 =  -1.1394E-009 +j 5.8753E-010
3306     3      4.7774E-009 /_  -25.6 =  4.3074E-009 +j -2.0664E-009
------------
3309     1       7.801E-008 /_  134.0 =  -5.415E-008 +j 5.6155E-008
3309     2      7.4161E-008 /_  133.5 =  -5.1067E-008 +j 5.3777E-008
3309     3      7.9838E-008 /_  135.0 =  -5.6491E-008 +j 5.6418E-008

ELEMENT = "Line.12465597_ID6213"
933      1           36.494 /_  134.9 =    -25.741 +j    25.869
933      2           36.919 /_   14.7 =     35.711 +j     9.363
933      3           38.948 /_ -105.9 =      -10.7 +j   -37.449
------------
934      1           36.494 /_  -45.1 =     25.741 +j   -25.869
934      2           36.919 /_ -165.3 =    -35.711 +j    -9.363
934      3           38.948 /_   74.1 =       10.7 +j    37.449

ELEMENT = "Line.12465587_ID5989"
1977     1           30.012 /_  -62.5 =     13.837 +j   -26.632
1977     2           32.499 /_  177.8 =    -32.475 +j    1.2456
1977     3           30.281 /_   57.5 =     16.275 +j    25.536
------------
1976     1           30.012 /_  117.5 =    -13.837 +j    26.632
1976     2           32.499 /_   -2.2 =     32.475 +j   -1.2456
1976     3           30.281 /_ -122.5 =    -16.275 +j   -25.536

ELEMENT = "Line.363435319_ID5062"
9        1            76.68 /_  -53.3 =     45.808 +j   -61.493
9        2           85.024 /_ -173.6 =    -84.493 +j   -9.4828
9        3           81.691 /_   66.5 =      32.55 +j    74.927
------------
7        1            76.68 /_  126.7 =    -45.808 +j    61.493
7        2           85.024 /_    6.4 =     84.493 +j    9.4828
7        3           81.691 /_ -113.5 =     -32.55 +j   -74.927

ELEMENT = "Line.363438448_ID4190"
431      1           108.22 /_  124.7 =    -61.655 +j    88.941
431      2           116.75 /_    4.7 =     116.36 +j    9.4932
431      3           114.75 /_ -115.3 =    -49.067 +j   -103.73
------------
432      1           108.22 /_  -55.3 =     61.655 +j   -88.941
432      2           116.75 /_ -175.3 =    -116.36 +j   -9.4932
432      3           114.75 /_   64.7 =     49.067 +j    103.73

ELEMENT = "Line.12465590_ID3371"
1105     1           135.64 /_  -53.5 =     80.721 +j   -109.01
1105     2           134.52 /_ -173.4 =    -133.64 +j   -15.365
1105     3           136.52 /_   66.5 =     54.373 +j    125.22
------------
1104     1           135.64 /_  126.5 =    -80.721 +j    109.01
1104     2           134.52 /_    6.6 =     133.64 +j    15.365
1104     3           136.52 /_ -113.5 =    -54.373 +j   -125.22

ELEMENT = "Line.5675058_ID6372"
3266     1      6.4632E-008 /_  -73.8 =  1.7986E-008 +j -6.2078E-008
3266     2      5.8288E-008 /_  -79.0 =  1.1118E-008 +j -5.7218E-008
3266     3      3.9397E-008 /_  -98.2 =  -5.5879E-009 +j -3.8999E-008
------------
3267     1      6.6316E-008 /_  105.9 =  -1.8161E-008 +j 6.3781E-008
3267     2      5.9992E-008 /_  101.0 =  -1.1438E-008 +j 5.8892E-008
3267     3      4.1038E-008 /_   83.2 =  4.8894E-009 +j 4.0745E-008

ELEMENT = "Line.5675059_ID6373"
3264     1      4.8665E-011 /_   16.1 =  4.6748E-011 +j 1.3525E-011
3264     2      1.4295E-010 /_   44.9 =  1.0132E-010 +j 1.0084E-010
3264     3      1.8558E-010 /_ -112.0 =  -6.9667E-011 +j -1.7201E-010
3264     4      2.5337E-011 /_  -85.3 =  2.0677E-012 +j -2.5253E-011
------------
3267     1      4.6792E-010 /_ -115.4 =  -2.0035E-010 +j -4.2285E-010
3267     2      5.1621E-010 /_ -163.5 =  -4.9503E-010 +j -1.4637E-010
3267     3      1.5745E-010 /_ -174.4 =  -1.567E-010 +j -1.5399E-011
3267     4      2.7407E-010 /_ -126.5 =  -1.6295E-010 +j -2.2037E-010

ELEMENT = "Line.5674994_ID5725"
2833     1           19.449 /_  123.2 =    -10.644 +j    16.278
2833     2           20.625 /_    3.3 =     20.591 +j    1.1911
2833     3           19.698 /_ -116.6 =    -8.8343 +j   -17.606
2833     4      6.4881E-011 /_  -11.1 =  6.3665E-011 +j -1.2506E-011
------------
2835     1           19.449 /_  -56.8 =     10.644 +j   -16.278
2835     2           20.625 /_ -176.7 =    -20.591 +j   -1.1911
2835     3           19.698 /_   63.4 =     8.8343 +j    17.606
2835     4      1.7562E-010 /_   88.2 =  5.457E-012 +j 1.7553E-010

ELEMENT = "Line.12465589_ID4669"
2224     1           71.083 /_  -52.6 =     43.174 +j    -56.47
2224     2           74.652 /_ -172.7 =    -74.055 +j   -9.4211
2224     3           73.937 /_   67.3 =     28.515 +j    68.217
------------
2228     1           71.083 /_  127.4 =    -43.174 +j     56.47
2228     2           74.652 /_    7.3 =     74.055 +j    9.4211
2228     3           73.937 /_ -112.7 =    -28.515 +j   -68.217

ELEMENT = "Line.12465597_ID6214"
932      1           36.494 /_  134.9 =    -25.741 +j    25.869
932      2           36.919 /_   14.7 =     35.711 +j     9.363
932      3           38.948 /_ -105.9 =      -10.7 +j   -37.449
------------
933      1           36.494 /_  -45.1 =     25.741 +j   -25.869
933      2           36.919 /_ -165.3 =    -35.711 +j    -9.363
933      3           38.948 /_   74.1 =       10.7 +j    37.449

ELEMENT = "Line.12465587_ID5990"
1980     1           30.012 /_  117.5 =    -13.837 +j    26.632
1980     2           32.499 /_   -2.2 =     32.475 +j   -1.2456
1980     3           30.281 /_ -122.5 =    -16.275 +j   -25.536
------------
1976     1           30.012 /_  -62.5 =     13.837 +j   -26.632
1976     2           32.499 /_  177.8 =    -32.475 +j    1.2456
1976     3           30.281 /_   57.5 =     16.275 +j    25.536

ELEMENT = "Line.12465590_ID3372"
1104     1           135.64 /_  -53.5 =     80.721 +j   -109.01
1104     2           134.52 /_ -173.4 =    -133.64 +j   -15.365
1104     3           136.52 /_   66.5 =     54.373 +j    125.22
------------
1108     1           135.64 /_  126.5 =    -80.721 +j    109.01
1108     2           134.52 /_    6.6 =     133.64 +j    15.365
1108     3           136.52 /_ -113.5 =    -54.373 +j   -125.22

ELEMENT = "Line.5675058_ID6374"
3265     1      6.2692E-008 /_  -73.5 =  1.7841E-008 +j -6.0099E-008
3265     2      5.6973E-008 /_  -79.1 =  1.0739E-008 +j -5.5952E-008
3265     3      3.8163E-008 /_  -99.8 =  -6.5193E-009 +j -3.7602E-008
------------
3266     1      6.3946E-008 /_  106.5 =  -1.8132E-008 +j 6.1322E-008
3266     2      5.8346E-008 /_  100.6 =  -1.0739E-008 +j 5.7349E-008
3266     3      3.9696E-008 /_   81.2 =  6.0536E-009 +j 3.9232E-008

ELEMENT = "Line.5675532_ID5417"
3029     1           75.252 /_  -55.5 =     42.639 +j   -62.007
3029     2           76.632 /_ -175.5 =    -76.396 +j    -6.011
3029     3            77.44 /_   64.5 =     33.378 +j    69.877
3029     4      2.4667E-010 /_  -61.9 =  1.1619E-010 +j -2.176E-010
------------
3034     1           75.252 /_  124.5 =    -42.639 +j    62.007
3034     2           76.632 /_    4.5 =     76.396 +j     6.011
3034     3            77.44 /_ -115.5 =    -33.378 +j   -69.877
3034     4      1.6461E-010 /_  169.6 =  -1.6189E-010 +j 2.9786E-011

ELEMENT = "Line.5675005_ID5726"
...